MODEL 1
REMARK VINA RESULT:     0.000      0.000      0.000
REMARK INTER + INTRA:          -0.139
REMARK INTER:                   0.000
REMARK INTRA:                  -0.139
REMARK UNBOUND:                -0.139
REMARK  Name = 10281
REMARK  4 active torsions:
REMARK  status: ('A' for Active; 'I' for Inactive)
REMARK    1  A    between atoms: C_3  and  C_4
REMARK    2  A    between atoms: C_3  and  C_5
REMARK    3  A    between atoms: C_3  and  C_6
REMARK    4  A    between atoms: C_9  and  C_12
REMARK                            x       y       z     vdW  Elec       q    Type
REMARK                         _______ _______ _______ _____ _____    ______ ____
ROOT
ATOM      1  O   UNL     1       1.221  -2.648  32.247  0.00  0.00    +0.000 OA
ATOM      2  O   UNL     1       3.488  -1.987  27.476  0.00  0.00    +0.000 OA
ATOM      3  C   UNL     1       2.710  -3.505  30.607  0.00  0.00    +0.000 C 
ATOM      4  C   UNL     1       1.751  -2.508  31.150  0.00  0.00    +0.000 C 
ATOM      5  C   UNL     1       3.262  -3.311  29.404  0.00  0.00    +0.000 C 
ATOM      6  C   UNL     1       2.002  -1.128  29.117  0.00  0.00    +0.000 C 
ATOM      7  C   UNL     1       2.959  -2.126  28.574  0.00  0.00    +0.000 C 
ATOM      8  C   UNL     1       1.448  -1.323  30.320  0.00  0.00    +0.000 C 
ATOM      9  C   UNL     1       1.701   0.068  28.270  0.00  0.00    +0.000 C 
ENDROOT
BRANCH   3  10
ATOM     10  C   UNL     1       3.011  -4.701  31.455  0.00  0.00    +0.000 C 
ATOM     11  C   UNL     1       2.957  -5.975  30.615  0.00  0.00    +0.000 C 
ATOM     12  C   UNL     1       4.369  -4.556  32.135  0.00  0.00    +0.000 C 
ENDBRANCH   3  10
TORSDOF 1
ENDMDL
MODEL 2
REMARK VINA RESULT:     0.000      7.905      8.328
REMARK INTER + INTRA:          -0.139
REMARK INTER:                   0.000
REMARK INTRA:                  -0.139
REMARK UNBOUND:                -0.139
REMARK  Name = 10281
REMARK  4 active torsions:
REMARK  status: ('A' for Active; 'I' for Inactive)
REMARK    1  A    between atoms: C_3  and  C_4
REMARK    2  A    between atoms: C_3  and  C_5
REMARK    3  A    between atoms: C_3  and  C_6
REMARK    4  A    between atoms: C_9  and  C_12
REMARK                            x       y       z     vdW  Elec       q    Type
REMARK                         _______ _______ _______ _____ _____    ______ ____
ROOT
ATOM      1  O   UNL     1       5.612 -10.241  32.212  0.00  0.00    +0.000 OA
ATOM      2  O   UNL     1       9.521  -6.628  32.118  0.00  0.00    +0.000 OA
ATOM      3  C   UNL     1       7.035  -8.805  33.458  0.00  0.00    +0.000 C 
ATOM      4  C   UNL     1       6.512  -9.407  32.205  0.00  0.00    +0.000 C 
ATOM      5  C   UNL     1       8.018  -7.900  33.401  0.00  0.00    +0.000 C 
ATOM      6  C   UNL     1       8.096  -8.062  30.871  0.00  0.00    +0.000 C 
ATOM      7  C   UNL     1       8.619  -7.461  32.124  0.00  0.00    +0.000 C 
ATOM      8  C   UNL     1       7.113  -8.968  30.928  0.00  0.00    +0.000 C 
ATOM      9  C   UNL     1       8.711  -7.612  29.583  0.00  0.00    +0.000 C 
ENDROOT
BRANCH   3  10
ATOM     10  C   UNL     1       6.419  -9.255  34.746  0.00  0.00    +0.000 C 
ATOM     11  C   UNL     1       7.504  -9.560  35.775  0.00  0.00    +0.000 C 
ATOM     12  C   UNL     1       5.446  -8.207  35.277  0.00  0.00    +0.000 C 
ENDBRANCH   3  10
TORSDOF 1
ENDMDL
MODEL 3
REMARK VINA RESULT:     0.000      7.044      8.423
REMARK INTER + INTRA:          -0.139
REMARK INTER:                   0.000
REMARK INTRA:                  -0.139
REMARK UNBOUND:                -0.139
REMARK  Name = 10281
REMARK  4 active torsions:
REMARK  status: ('A' for Active; 'I' for Inactive)
REMARK    1  A    between atoms: C_3  and  C_4
REMARK    2  A    between atoms: C_3  and  C_5
REMARK    3  A    between atoms: C_3  and  C_6
REMARK    4  A    between atoms: C_9  and  C_12
REMARK                            x       y       z     vdW  Elec       q    Type
REMARK                         _______ _______ _______ _____ _____    ______ ____
ROOT
ATOM      1  O   UNL     1       0.744   0.468  39.702  0.00  0.00    +0.000 OA
ATOM      2  O   UNL     1       2.010  -0.976  34.737  0.00  0.00    +0.000 OA
ATOM      3  C   UNL     1       2.356   0.511  37.959  0.00  0.00    +0.000 C 
ATOM      4  C   UNL     1       1.048   0.142  38.559  0.00  0.00    +0.000 C 
ATOM      5  C   UNL     1       2.645   0.133  36.709  0.00  0.00    +0.000 C 
ATOM      6  C   UNL     1       0.396  -1.018  36.479  0.00  0.00    +0.000 C 
ATOM      7  C   UNL     1       1.704  -0.650  35.880  0.00  0.00    +0.000 C 
ATOM      8  C   UNL     1       0.107  -0.640  37.730  0.00  0.00    +0.000 C 
ATOM      9  C   UNL     1      -0.550  -1.810  35.632  0.00  0.00    +0.000 C 
ENDROOT
BRANCH   3  10
ATOM     10  C   UNL     1       3.302   1.304  38.806  0.00  0.00    +0.000 C 
ATOM     11  C   UNL     1       4.708   0.719  38.722  0.00  0.00    +0.000 C 
ATOM     12  C   UNL     1       3.300   2.773  38.392  0.00  0.00    +0.000 C 
ENDBRANCH   3  10
TORSDOF 1
ENDMDL
MODEL 4
REMARK VINA RESULT:     0.000     11.144     12.112
REMARK INTER + INTRA:          -0.139
REMARK INTER:                   0.000
REMARK INTRA:                  -0.139
REMARK UNBOUND:                -0.139
REMARK  Name = 10281
REMARK  4 active torsions:
REMARK  status: ('A' for Active; 'I' for Inactive)
REMARK    1  A    between atoms: C_3  and  C_4
REMARK    2  A    between atoms: C_3  and  C_5
REMARK    3  A    between atoms: C_3  and  C_6
REMARK    4  A    between atoms: C_9  and  C_12
REMARK                            x       y       z     vdW  Elec       q    Type
REMARK                         _______ _______ _______ _____ _____    ______ ____
ROOT
ATOM      1  O   UNL     1       5.761   1.933  41.972  0.00  0.00    +0.000 OA
ATOM      2  O   UNL     1       4.164   5.739  38.610  0.00  0.00    +0.000 OA
ATOM      3  C   UNL     1       4.731   2.463  39.898  0.00  0.00    +0.000 C 
ATOM      4  C   UNL     1       5.388   2.799  41.188  0.00  0.00    +0.000 C 
ATOM      5  C   UNL     1       4.340   3.442  39.076  0.00  0.00    +0.000 C 
ATOM      6  C   UNL     1       5.195   5.209  40.682  0.00  0.00    +0.000 C 
ATOM      7  C   UNL     1       4.538   4.872  39.394  0.00  0.00    +0.000 C 
ATOM      8  C   UNL     1       5.585   4.229  41.506  0.00  0.00    +0.000 C 
ATOM      9  C   UNL     1       5.391   6.659  40.996  0.00  0.00    +0.000 C 
ENDROOT
BRANCH   3  10
ATOM     10  C   UNL     1       4.537   1.012  39.585  0.00  0.00    +0.000 C 
ATOM     11  C   UNL     1       3.120   0.765  39.073  0.00  0.00    +0.000 C 
ATOM     12  C   UNL     1       5.572   0.533  38.571  0.00  0.00    +0.000 C 
ENDBRANCH   3  10
TORSDOF 1
ENDMDL
MODEL 5
REMARK VINA RESULT:     0.000     13.878     15.063
REMARK INTER + INTRA:          -0.139
REMARK INTER:                   0.000
REMARK INTRA:                  -0.139
REMARK UNBOUND:                -0.139
REMARK  Name = 10281
REMARK  4 active torsions:
REMARK  status: ('A' for Active; 'I' for Inactive)
REMARK    1  A    between atoms: C_3  and  C_4
REMARK    2  A    between atoms: C_3  and  C_5
REMARK    3  A    between atoms: C_3  and  C_6
REMARK    4  A    between atoms: C_9  and  C_12
REMARK                            x       y       z     vdW  Elec       q    Type
REMARK                         _______ _______ _______ _____ _____    ______ ____
ROOT
ATOM      1  O   UNL     1      15.263   0.602  24.454  0.00  0.00    +0.000 OA
ATOM      2  O   UNL     1      16.780  -0.723  29.382  0.00  0.00    +0.000 OA
ATOM      3  C   UNL     1      17.017  -0.146  25.871  0.00  0.00    +0.000 C 
ATOM      4  C   UNL     1      15.626   0.293  25.584  0.00  0.00    +0.000 C 
ATOM      5  C   UNL     1      17.367  -0.471  27.120  0.00  0.00    +0.000 C 
ATOM      6  C   UNL     1      15.027   0.023  27.965  0.00  0.00    +0.000 C 
ATOM      7  C   UNL     1      16.416  -0.415  28.251  0.00  0.00    +0.000 C 
ATOM      8  C   UNL     1      14.676   0.349  26.715  0.00  0.00    +0.000 C 
ATOM      9  C   UNL     1      14.071   0.076  29.115  0.00  0.00    +0.000 C 
ENDROOT
BRANCH   3  10
ATOM     10  C   UNL     1      17.971  -0.200  24.719  0.00  0.00    +0.000 C 
ATOM     11  C   UNL     1      19.300   0.445  25.101  0.00  0.00    +0.000 C 
ATOM     12  C   UNL     1      18.179  -1.639  24.255  0.00  0.00    +0.000 C 
ENDBRANCH   3  10
TORSDOF 1
ENDMDL
MODEL 6
REMARK VINA RESULT:     0.000     14.017     15.035
REMARK INTER + INTRA:          -0.139
REMARK INTER:                   0.000
REMARK INTRA:                  -0.139
REMARK UNBOUND:                -0.139
REMARK  Name = 10281
REMARK  4 active torsions:
REMARK  status: ('A' for Active; 'I' for Inactive)
REMARK    1  A    between atoms: C_3  and  C_4
REMARK    2  A    between atoms: C_3  and  C_5
REMARK    3  A    between atoms: C_3  and  C_6
REMARK    4  A    between atoms: C_9  and  C_12
REMARK                            x       y       z     vdW  Elec       q    Type
REMARK                         _______ _______ _______ _____ _____    ______ ____
ROOT
ATOM      1  O   UNL     1      16.105   0.971  25.862  0.00  0.00    +0.000 OA
ATOM      2  O   UNL     1      16.482   1.247  31.165  0.00  0.00    +0.000 OA
ATOM      3  C   UNL     1      17.263   0.290  27.820  0.00  0.00    +0.000 C 
ATOM      4  C   UNL     1      16.203   1.025  27.084  0.00  0.00    +0.000 C 
ATOM      5  C   UNL     1      17.332   0.380  29.153  0.00  0.00    +0.000 C 
ATOM      6  C   UNL     1      15.322   1.926  29.207  0.00  0.00    +0.000 C 
ATOM      7  C   UNL     1      16.382   1.192  29.943  0.00  0.00    +0.000 C 
ATOM      8  C   UNL     1      15.254   1.837  27.874  0.00  0.00    +0.000 C 
ATOM      9  C   UNL     1      14.365   2.746  30.016  0.00  0.00    +0.000 C 
ENDROOT
BRANCH   3  10
ATOM     10  C   UNL     1      18.219  -0.530  27.011  0.00  0.00    +0.000 C 
ATOM     11  C   UNL     1      19.653  -0.280  27.470  0.00  0.00    +0.000 C 
ATOM     12  C   UNL     1      17.872  -2.013  27.100  0.00  0.00    +0.000 C 
ENDBRANCH   3  10
TORSDOF 1
ENDMDL
MODEL 7
REMARK VINA RESULT:     0.000      8.761      9.577
REMARK INTER + INTRA:          -0.139
REMARK INTER:                   0.000
REMARK INTRA:                  -0.139
REMARK UNBOUND:                -0.139
REMARK  Name = 10281
REMARK  4 active torsions:
REMARK  status: ('A' for Active; 'I' for Inactive)
REMARK    1  A    between atoms: C_3  and  C_4
REMARK    2  A    between atoms: C_3  and  C_5
REMARK    3  A    between atoms: C_3  and  C_6
REMARK    4  A    between atoms: C_9  and  C_12
REMARK                            x       y       z     vdW  Elec       q    Type
REMARK                         _______ _______ _______ _____ _____    ______ ____
ROOT
ATOM      1  O   UNL     1       9.496  -4.239  37.352  0.00  0.00    +0.000 OA
ATOM      2  O   UNL     1       6.925   0.423  37.305  0.00  0.00    +0.000 OA
ATOM      3  C   UNL     1       7.540  -3.031  37.947  0.00  0.00    +0.000 C 
ATOM      4  C   UNL     1       8.892  -3.171  37.348  0.00  0.00    +0.000 C 
ATOM      5  C   UNL     1       6.920  -1.846  37.920  0.00  0.00    +0.000 C 
ATOM      6  C   UNL     1       8.880  -0.786  36.709  0.00  0.00    +0.000 C 
ATOM      7  C   UNL     1       7.529  -0.646  37.308  0.00  0.00    +0.000 C 
ATOM      8  C   UNL     1       9.501  -1.971  36.736  0.00  0.00    +0.000 C 
ATOM      9  C   UNL     1       9.489   0.434  36.091  0.00  0.00    +0.000 C 
ENDROOT
BRANCH   3  10
ATOM     10  C   UNL     1       6.931  -4.252  38.563  0.00  0.00    +0.000 C 
ATOM     11  C   UNL     1       6.332  -3.916  39.926  0.00  0.00    +0.000 C 
ATOM     12  C   UNL     1       5.877  -4.857  37.640  0.00  0.00    +0.000 C 
ENDBRANCH   3  10
TORSDOF 1
ENDMDL
MODEL 8
REMARK VINA RESULT:     0.000      8.543      9.142
REMARK INTER + INTRA:          -0.139
REMARK INTER:                   0.000
REMARK INTRA:                  -0.139
REMARK UNBOUND:                -0.139
REMARK  Name = 10281
REMARK  4 active torsions:
REMARK  status: ('A' for Active; 'I' for Inactive)
REMARK    1  A    between atoms: C_3  and  C_4
REMARK    2  A    between atoms: C_3  and  C_5
REMARK    3  A    between atoms: C_3  and  C_6
REMARK    4  A    between atoms: C_9  and  C_12
REMARK                            x       y       z     vdW  Elec       q    Type
REMARK                         _______ _______ _______ _____ _____    ______ ____
ROOT
ATOM      1  O   UNL     1       8.462  -8.502  33.193  0.00  0.00    +0.000 OA
ATOM      2  O   UNL     1      11.245  -3.979  33.568  0.00  0.00    +0.000 OA
ATOM      3  C   UNL     1       9.113  -6.664  34.549  0.00  0.00    +0.000 C 
ATOM      4  C   UNL     1       9.098  -7.458  33.293  0.00  0.00    +0.000 C 
ATOM      5  C   UNL     1       9.823  -5.532  34.612  0.00  0.00    +0.000 C 
ATOM      6  C   UNL     1      10.591  -5.815  32.211  0.00  0.00    +0.000 C 
ATOM      7  C   UNL     1      10.607  -5.023  33.467  0.00  0.00    +0.000 C 
ATOM      8  C   UNL     1       9.882  -6.949  32.149  0.00  0.00    +0.000 C 
ATOM      9  C   UNL     1      11.388  -5.292  31.057  0.00  0.00    +0.000 C 
ENDROOT
BRANCH   3  10
ATOM     10  C   UNL     1       8.315  -7.188  35.702  0.00  0.00    +0.000 C 
ATOM     11  C   UNL     1       9.137  -7.127  36.987  0.00  0.00    +0.000 C 
ATOM     12  C   UNL     1       7.010  -6.412  35.855  0.00  0.00    +0.000 C 
ENDBRANCH   3  10
TORSDOF 1
ENDMDL
MODEL 9
REMARK VINA RESULT:     0.000      8.012      8.882
REMARK INTER + INTRA:          -0.139
REMARK INTER:                   0.000
REMARK INTRA:                  -0.139
REMARK UNBOUND:                -0.139
REMARK  Name = 10281
REMARK  4 active torsions:
REMARK  status: ('A' for Active; 'I' for Inactive)
REMARK    1  A    between atoms: C_3  and  C_4
REMARK    2  A    between atoms: C_3  and  C_5
REMARK    3  A    between atoms: C_3  and  C_6
REMARK    4  A    between atoms: C_9  and  C_12
REMARK                            x       y       z     vdW  Elec       q    Type
REMARK                         _______ _______ _______ _____ _____    ______ ____
ROOT
ATOM      1  O   UNL     1       7.882   1.116  35.611  0.00  0.00    +0.000 OA
ATOM      2  O   UNL     1       3.859   4.449  36.635  0.00  0.00    +0.000 OA
ATOM      3  C   UNL     1       5.563   1.370  36.060  0.00  0.00    +0.000 C 
ATOM      4  C   UNL     1       6.946   1.873  35.847  0.00  0.00    +0.000 C 
ATOM      5  C   UNL     1       4.574   2.234  36.316  0.00  0.00    +0.000 C 
ATOM      6  C   UNL     1       6.177   4.195  36.184  0.00  0.00    +0.000 C 
ATOM      7  C   UNL     1       4.796   3.693  36.398  0.00  0.00    +0.000 C 
ATOM      8  C   UNL     1       7.167   3.332  35.929  0.00  0.00    +0.000 C 
ATOM      9  C   UNL     1       6.392   5.674  36.268  0.00  0.00    +0.000 C 
ENDROOT
BRANCH   3  10
ATOM     10  C   UNL     1       5.349  -0.108  35.975  0.00  0.00    +0.000 C 
ATOM     11  C   UNL     1       4.492  -0.589  37.143  0.00  0.00    +0.000 C 
ATOM     12  C   UNL     1       4.712  -0.488  34.641  0.00  0.00    +0.000 C 
ENDBRANCH   3  10
TORSDOF 1
ENDMDL
