MODEL 1
REMARK VINA RESULT:    -6.539      0.000      0.000
REMARK INTER + INTRA:          -7.521
REMARK INTER:                  -6.197
REMARK INTRA:                  -1.323
REMARK UNBOUND:                 1.312
REMARK  Name = MEM
REMARK  11 active torsions:
REMARK  status: ('A' for Active; 'I' for Inactive)
REMARK    1  A    between atoms: C_1  and  N_2
REMARK    2  A    between atoms: N_2  and  C_3
REMARK    3  A    between atoms: C_4  and  C_6
REMARK    4  A    between atoms: C_10  and  S_11
REMARK    5  A    between atoms: S_11  and  C_12
REMARK    6  A    between atoms: C_13  and  C_14
REMARK    7  A    between atoms: C_16  and  C_17
REMARK    8  A    between atoms: C_17  and  C_18
REMARK    9  A    between atoms: C_17  and  O_19
REMARK   10  A    between atoms: C_23  and  C_24
REMARK   11  A    between atoms: C_24  and  O_26
REMARK                            x       y       z     vdW  Elec       q    Type
REMARK                         _______ _______ _______ _____ _____    ______ ____
ROOT
ATOM      1  C   UNL     1      59.878 164.762  38.931  0.00  0.00    +0.000 C 
ATOM      2  C   UNL     1      59.618 164.329  40.361  0.00  0.00    +0.000 C 
ATOM      3  C   UNL     1      60.898 163.942  41.102  0.00  0.00    +0.000 C 
ATOM      4  C   UNL     1      58.696 163.118  40.152  0.00  0.00    +0.000 C 
ATOM      5  C   UNL     1      59.026 161.625  40.474  0.00  0.00    +0.000 C 
ATOM      6  C   UNL     1      59.406 161.528  38.975  0.00  0.00    +0.000 C 
ATOM      7  O   UNL     1      60.050 160.768  38.295  0.00  0.00    +0.000 OA
ATOM      8  N   UNL     1      58.853 162.757  38.720  0.00  0.00    +0.000 N 
ATOM      9  C   UNL     1      59.529 163.780  38.076  0.00  0.00    +0.000 C 
ENDROOT
BRANCH   5  10
ATOM     10  C   UNL     1      57.818 160.834  40.946  0.00  0.00    +0.000 C 
ATOM     11  C   UNL     1      56.678 161.745  41.376  0.00  0.00    +0.000 C 
BRANCH  10  12
ATOM     12  O   UNL     1      57.373 160.045  39.840  0.00  0.00    +0.000 OA
ATOM     13  H   UNL     1      56.552 160.446  39.504  0.00  0.00    +0.000 HD
ENDBRANCH  10  12
ENDBRANCH   5  10
BRANCH   9  14
ATOM     14  C   UNL     1      59.783 163.713  36.620  0.00  0.00    +0.000 C 
ATOM     15  O   UNL     1      60.859 163.602  36.059  0.00  0.00    +0.000 OA
BRANCH  14  16
ATOM     16  O   UNL     1      58.643 163.810  35.904  0.00  0.00    +0.000 OA
ATOM     17  H   UNL     1      58.788 164.590  35.333  0.00  0.00    +0.000 HD
ENDBRANCH  14  16
ENDBRANCH   9  14
BRANCH   1  18
ATOM     18  S   UNL     1      60.629 166.280  38.604  0.00  0.00    +0.000 S 
BRANCH  18  23
ATOM     19  C   UNL     1      57.101 167.676  39.942  0.00  0.00    +0.000 C 
ATOM     20  C   UNL     1      57.892 166.999  38.820  0.00  0.00    +0.000 C 
ATOM     21  N   UNL     1      58.038 167.606  41.089  0.00  0.00    +0.000 NA
ATOM     22  C   UNL     1      59.367 167.893  40.509  0.00  0.00    +0.000 C 
ATOM     23  C   UNL     1      59.323 167.499  39.019  0.00  0.00    +0.000 C 
ATOM     24  H   UNL     1      58.045 166.632  41.416  0.00  0.00    +0.000 HD
BRANCH  19  28
ATOM     25  C   UNL     1      54.587 169.167  40.310  0.00  0.00    +0.000 C 
ATOM     26  N   UNL     1      54.619 167.718  40.423  0.00  0.00    +0.000 N 
ATOM     27  C   UNL     1      53.381 167.028  40.748  0.00  0.00    +0.000 C 
ATOM     28  C   UNL     1      55.776 166.950  40.285  0.00  0.00    +0.000 C 
ATOM     29  O   UNL     1      55.752 165.727  40.454  0.00  0.00    +0.000 OA
ENDBRANCH  19  28
ENDBRANCH  18  23
ENDBRANCH   1  18
TORSDOF 7
ENDMDL
MODEL 2
REMARK VINA RESULT:    -5.462      4.022      6.461
REMARK INTER + INTRA:          -6.065
REMARK INTER:                  -5.073
REMARK INTRA:                  -0.993
REMARK UNBOUND:                 1.312
REMARK  Name = MEM
REMARK  11 active torsions:
REMARK  status: ('A' for Active; 'I' for Inactive)
REMARK    1  A    between atoms: C_1  and  N_2
REMARK    2  A    between atoms: N_2  and  C_3
REMARK    3  A    between atoms: C_4  and  C_6
REMARK    4  A    between atoms: C_10  and  S_11
REMARK    5  A    between atoms: S_11  and  C_12
REMARK    6  A    between atoms: C_13  and  C_14
REMARK    7  A    between atoms: C_16  and  C_17
REMARK    8  A    between atoms: C_17  and  C_18
REMARK    9  A    between atoms: C_17  and  O_19
REMARK   10  A    between atoms: C_23  and  C_24
REMARK   11  A    between atoms: C_24  and  O_26
REMARK                            x       y       z     vdW  Elec       q    Type
REMARK                         _______ _______ _______ _____ _____    ______ ____
ROOT
ATOM      1  C   UNL     1      56.929 167.228  40.792  0.00  0.00    +0.000 C 
ATOM      2  C   UNL     1      58.202 166.409  40.699  0.00  0.00    +0.000 C 
ATOM      3  C   UNL     1      59.156 166.667  41.865  0.00  0.00    +0.000 C 
ATOM      4  C   UNL     1      58.789 166.900  39.368  0.00  0.00    +0.000 C 
ATOM      5  C   UNL     1      60.105 167.720  39.171  0.00  0.00    +0.000 C 
ATOM      6  C   UNL     1      59.172 168.956  39.157  0.00  0.00    +0.000 C 
ATOM      7  O   UNL     1      59.311 170.145  39.307  0.00  0.00    +0.000 OA
ATOM      8  N   UNL     1      58.059 168.158  39.067  0.00  0.00    +0.000 N 
ATOM      9  C   UNL     1      56.976 168.259  39.925  0.00  0.00    +0.000 C 
ENDROOT
BRANCH   5  10
ATOM     10  C   UNL     1      60.837 167.376  37.885  0.00  0.00    +0.000 C 
ATOM     11  C   UNL     1      60.453 165.999  37.367  0.00  0.00    +0.000 C 
BRANCH  10  12
ATOM     12  O   UNL     1      60.454 168.349  36.910  0.00  0.00    +0.000 OA
ATOM     13  H   UNL     1      60.729 169.222  37.242  0.00  0.00    +0.000 HD
ENDBRANCH  10  12
ENDBRANCH   5  10
BRANCH   9  14
ATOM     14  C   UNL     1      56.036 169.396  39.817  0.00  0.00    +0.000 C 
ATOM     15  O   UNL     1      56.187 170.527  40.245  0.00  0.00    +0.000 OA
BRANCH  14  16
ATOM     16  O   UNL     1      54.900 169.053  39.174  0.00  0.00    +0.000 OA
ATOM     17  H   UNL     1      55.168 168.309  38.599  0.00  0.00    +0.000 HD
ENDBRANCH  14  16
ENDBRANCH   9  14
BRANCH   1  18
ATOM     18  S   UNL     1      55.731 166.844  41.970  0.00  0.00    +0.000 S 
BRANCH  18  23
ATOM     19  C   UNL     1      52.969 164.040  41.137  0.00  0.00    +0.000 C 
ATOM     20  C   UNL     1      53.856 164.724  42.181  0.00  0.00    +0.000 C 
ATOM     21  N   UNL     1      53.062 164.959  39.978  0.00  0.00    +0.000 NA
ATOM     22  C   UNL     1      54.478 165.380  39.943  0.00  0.00    +0.000 C 
ATOM     23  C   UNL     1      55.041 165.253  41.373  0.00  0.00    +0.000 C 
ATOM     24  H   UNL     1      52.497 165.787  40.201  0.00  0.00    +0.000 HD
BRANCH  19  28
ATOM     25  C   UNL     1      51.737 161.386  41.486  0.00  0.00    +0.000 C 
ATOM     26  N   UNL     1      50.984 162.601  41.754  0.00  0.00    +0.000 N 
ATOM     27  C   UNL     1      49.597 162.470  42.173  0.00  0.00    +0.000 C 
ATOM     28  C   UNL     1      51.494 163.889  41.588  0.00  0.00    +0.000 C 
ATOM     29  O   UNL     1      50.786 164.883  41.771  0.00  0.00    +0.000 OA
ENDBRANCH  19  28
ENDBRANCH  18  23
ENDBRANCH   1  18
TORSDOF 7
ENDMDL
MODEL 3
REMARK VINA RESULT:    -5.442      4.385      6.376
REMARK INTER + INTRA:          -6.038
REMARK INTER:                  -5.674
REMARK INTRA:                  -0.364
REMARK UNBOUND:                 1.312
REMARK  Name = MEM
REMARK  11 active torsions:
REMARK  status: ('A' for Active; 'I' for Inactive)
REMARK    1  A    between atoms: C_1  and  N_2
REMARK    2  A    between atoms: N_2  and  C_3
REMARK    3  A    between atoms: C_4  and  C_6
REMARK    4  A    between atoms: C_10  and  S_11
REMARK    5  A    between atoms: S_11  and  C_12
REMARK    6  A    between atoms: C_13  and  C_14
REMARK    7  A    between atoms: C_16  and  C_17
REMARK    8  A    between atoms: C_17  and  C_18
REMARK    9  A    between atoms: C_17  and  O_19
REMARK   10  A    between atoms: C_23  and  C_24
REMARK   11  A    between atoms: C_24  and  O_26
REMARK                            x       y       z     vdW  Elec       q    Type
REMARK                         _______ _______ _______ _____ _____    ______ ____
ROOT
ATOM      1  C   UNL     1      54.200 166.863  41.122  0.00  0.00    +0.000 C 
ATOM      2  C   UNL     1      55.056 165.696  41.578  0.00  0.00    +0.000 C 
ATOM      3  C   UNL     1      55.981 165.177  40.478  0.00  0.00    +0.000 C 
ATOM      4  C   UNL     1      53.987 164.660  41.956  0.00  0.00    +0.000 C 
ATOM      5  C   UNL     1      53.709 163.300  41.240  0.00  0.00    +0.000 C 
ATOM      6  C   UNL     1      52.608 164.081  40.479  0.00  0.00    +0.000 C 
ATOM      7  O   UNL     1      51.974 163.914  39.467  0.00  0.00    +0.000 OA
ATOM      8  N   UNL     1      52.735 165.152  41.327  0.00  0.00    +0.000 N 
ATOM      9  C   UNL     1      52.938 166.451  40.891  0.00  0.00    +0.000 C 
ENDROOT
BRANCH   5  10
ATOM     10  C   UNL     1      53.263 162.203  42.192  0.00  0.00    +0.000 C 
ATOM     11  C   UNL     1      51.957 161.564  41.747  0.00  0.00    +0.000 C 
BRANCH  10  12
ATOM     12  O   UNL     1      54.282 161.201  42.187  0.00  0.00    +0.000 OA
ATOM     13  H   UNL     1      53.868 160.359  42.450  0.00  0.00    +0.000 HD
ENDBRANCH  10  12
ENDBRANCH   5  10
BRANCH   9  14
ATOM     14  C   UNL     1      51.836 167.215  40.266  0.00  0.00    +0.000 C 
ATOM     15  O   UNL     1      50.972 167.865  40.828  0.00  0.00    +0.000 OA
BRANCH  14  16
ATOM     16  O   UNL     1      51.850 167.113  38.920  0.00  0.00    +0.000 OA
ATOM     17  H   UNL     1      50.905 167.129  38.671  0.00  0.00    +0.000 HD
ENDBRANCH  14  16
ENDBRANCH   9  14
BRANCH   1  18
ATOM     18  S   UNL     1      54.909 168.413  40.865  0.00  0.00    +0.000 S 
BRANCH  18  23
ATOM     19  C   UNL     1      58.875 168.901  40.389  0.00  0.00    +0.000 C 
ATOM     20  C   UNL     1      57.552 168.369  39.831  0.00  0.00    +0.000 C 
ATOM     21  N   UNL     1      58.431 169.767  41.507  0.00  0.00    +0.000 NA
ATOM     22  C   UNL     1      57.321 169.025  42.142  0.00  0.00    +0.000 C 
ATOM     23  C   UNL     1      56.704 168.100  41.074  0.00  0.00    +0.000 C 
ATOM     24  H   UNL     1      58.038 170.620  41.092  0.00  0.00    +0.000 HD
BRANCH  19  28
ATOM     25  C   UNL     1      60.886 167.627  38.653  0.00  0.00    +0.000 C 
ATOM     26  N   UNL     1      60.609 169.051  38.555  0.00  0.00    +0.000 N 
ATOM     27  C   UNL     1      61.371 169.834  37.596  0.00  0.00    +0.000 C 
ATOM     28  C   UNL     1      59.689 169.724  39.360  0.00  0.00    +0.000 C 
ATOM     29  O   UNL     1      59.543 170.947  39.274  0.00  0.00    +0.000 OA
ENDBRANCH  19  28
ENDBRANCH  18  23
ENDBRANCH   1  18
TORSDOF 7
ENDMDL
MODEL 4
REMARK VINA RESULT:    -5.021      1.584      2.071
REMARK INTER + INTRA:          -5.470
REMARK INTER:                  -4.067
REMARK INTRA:                  -1.403
REMARK UNBOUND:                 1.312
REMARK  Name = MEM
REMARK  11 active torsions:
REMARK  status: ('A' for Active; 'I' for Inactive)
REMARK    1  A    between atoms: C_1  and  N_2
REMARK    2  A    between atoms: N_2  and  C_3
REMARK    3  A    between atoms: C_4  and  C_6
REMARK    4  A    between atoms: C_10  and  S_11
REMARK    5  A    between atoms: S_11  and  C_12
REMARK    6  A    between atoms: C_13  and  C_14
REMARK    7  A    between atoms: C_16  and  C_17
REMARK    8  A    between atoms: C_17  and  C_18
REMARK    9  A    between atoms: C_17  and  O_19
REMARK   10  A    between atoms: C_23  and  C_24
REMARK   11  A    between atoms: C_24  and  O_26
REMARK                            x       y       z     vdW  Elec       q    Type
REMARK                         _______ _______ _______ _____ _____    ______ ____
ROOT
ATOM      1  C   UNL     1      60.161 164.078  39.827  0.00  0.00    +0.000 C 
ATOM      2  C   UNL     1      59.810 163.910  41.293  0.00  0.00    +0.000 C 
ATOM      3  C   UNL     1      60.721 162.911  42.006  0.00  0.00    +0.000 C 
ATOM      4  C   UNL     1      58.365 163.397  41.206  0.00  0.00    +0.000 C 
ATOM      5  C   UNL     1      57.849 161.981  41.618  0.00  0.00    +0.000 C 
ATOM      6  C   UNL     1      58.006 161.637  40.115  0.00  0.00    +0.000 C 
ATOM      7  O   UNL     1      58.080 160.625  39.464  0.00  0.00    +0.000 OA
ATOM      8  N   UNL     1      58.195 162.959  39.798  0.00  0.00    +0.000 N 
ATOM      9  C   UNL     1      59.272 163.418  39.057  0.00  0.00    +0.000 C 
ENDROOT
BRANCH   5  10
ATOM     10  C   UNL     1      56.443 162.000  42.192  0.00  0.00    +0.000 C 
ATOM     11  C   UNL     1      55.832 163.392  42.145  0.00  0.00    +0.000 C 
BRANCH  10  12
ATOM     12  O   UNL     1      55.646 161.129  41.385  0.00  0.00    +0.000 OA
ATOM     13  H   UNL     1      55.014 161.682  40.892  0.00  0.00    +0.000 HD
ENDBRANCH  10  12
ENDBRANCH   5  10
BRANCH   9  14
ATOM     14  C   UNL     1      59.342 163.171  37.601  0.00  0.00    +0.000 C 
ATOM     15  O   UNL     1      58.940 163.893  36.705  0.00  0.00    +0.000 OA
BRANCH  14  16
ATOM     16  O   UNL     1      59.914 161.982  37.317  0.00  0.00    +0.000 OA
ATOM     17  H   UNL     1      60.817 162.217  37.023  0.00  0.00    +0.000 HD
ENDBRANCH  14  16
ENDBRANCH   9  14
BRANCH   1  18
ATOM     18  S   UNL     1      61.592 164.922  39.365  0.00  0.00    +0.000 S 
BRANCH  18  23
ATOM     19  C   UNL     1      59.123 168.089  39.619  0.00  0.00    +0.000 C 
ATOM     20  C   UNL     1      59.610 166.878  38.818  0.00  0.00    +0.000 C 
ATOM     21  N   UNL     1      59.715 167.852  40.958  0.00  0.00    +0.000 NA
ATOM     22  C   UNL     1      61.071 167.332  40.685  0.00  0.00    +0.000 C 
ATOM     23  C   UNL     1      61.049 166.672  39.292  0.00  0.00    +0.000 C 
ATOM     24  H   UNL     1      59.175 167.097  41.399  0.00  0.00    +0.000 HD
BRANCH  19  28
ATOM     25  C   UNL     1      57.706 170.637  39.197  0.00  0.00    +0.000 C 
ATOM     26  N   UNL     1      56.974 169.414  39.486  0.00  0.00    +0.000 N 
ATOM     27  C   UNL     1      55.526 169.489  39.587  0.00  0.00    +0.000 C 
ATOM     28  C   UNL     1      57.580 168.179  39.720  0.00  0.00    +0.000 C 
ATOM     29  O   UNL     1      56.909 167.188  40.024  0.00  0.00    +0.000 OA
ENDBRANCH  19  28
ENDBRANCH  18  23
ENDBRANCH   1  18
TORSDOF 7
ENDMDL
MODEL 5
REMARK VINA RESULT:    -4.589      5.184      8.022
REMARK INTER + INTRA:          -4.886
REMARK INTER:                  -5.137
REMARK INTRA:                   0.251
REMARK UNBOUND:                 1.312
REMARK  Name = MEM
REMARK  11 active torsions:
REMARK  status: ('A' for Active; 'I' for Inactive)
REMARK    1  A    between atoms: C_1  and  N_2
REMARK    2  A    between atoms: N_2  and  C_3
REMARK    3  A    between atoms: C_4  and  C_6
REMARK    4  A    between atoms: C_10  and  S_11
REMARK    5  A    between atoms: S_11  and  C_12
REMARK    6  A    between atoms: C_13  and  C_14
REMARK    7  A    between atoms: C_16  and  C_17
REMARK    8  A    between atoms: C_17  and  C_18
REMARK    9  A    between atoms: C_17  and  O_19
REMARK   10  A    between atoms: C_23  and  C_24
REMARK   11  A    between atoms: C_24  and  O_26
REMARK                            x       y       z     vdW  Elec       q    Type
REMARK                         _______ _______ _______ _____ _____    ______ ____
ROOT
ATOM      1  C   UNL     1      54.318 167.962  40.955  0.00  0.00    +0.000 C 
ATOM      2  C   UNL     1      55.681 167.307  40.832  0.00  0.00    +0.000 C 
ATOM      3  C   UNL     1      56.294 166.959  42.188  0.00  0.00    +0.000 C 
ATOM      4  C   UNL     1      56.483 168.400  40.110  0.00  0.00    +0.000 C 
ATOM      5  C   UNL     1      57.680 169.219  40.692  0.00  0.00    +0.000 C 
ATOM      6  C   UNL     1      56.610 170.292  41.018  0.00  0.00    +0.000 C 
ATOM      7  O   UNL     1      56.543 171.250  41.747  0.00  0.00    +0.000 OA
ATOM      8  N   UNL     1      55.672 169.636  40.261  0.00  0.00    +0.000 N 
ATOM      9  C   UNL     1      54.418 169.288  40.734  0.00  0.00    +0.000 C 
ENDROOT
BRANCH   5  10
ATOM     10  C   UNL     1      58.730 169.566  39.650  0.00  0.00    +0.000 C 
ATOM     11  C   UNL     1      58.814 168.511  38.559  0.00  0.00    +0.000 C 
BRANCH  10  12
ATOM     12  O   UNL     1      58.337 170.804  39.052  0.00  0.00    +0.000 OA
ATOM     13  H   UNL     1      59.081 171.424  39.144  0.00  0.00    +0.000 HD
ENDBRANCH  10  12
ENDBRANCH   5  10
BRANCH   9  14
ATOM     14  C   UNL     1      53.377 170.320  40.932  0.00  0.00    +0.000 C 
ATOM     15  O   UNL     1      53.396 171.252  41.717  0.00  0.00    +0.000 OA
BRANCH  14  16
ATOM     16  O   UNL     1      52.313 170.126  40.125  0.00  0.00    +0.000 OA
ATOM     17  H   UNL     1      52.642 170.365  39.237  0.00  0.00    +0.000 HD
ENDBRANCH  14  16
ENDBRANCH   9  14
BRANCH   1  18
ATOM     18  S   UNL     1      52.947 167.033  41.435  0.00  0.00    +0.000 S 
BRANCH  18  23
ATOM     19  C   UNL     1      52.533 163.075  40.844  0.00  0.00    +0.000 C 
ATOM     20  C   UNL     1      52.781 164.227  41.822  0.00  0.00    +0.000 C 
ATOM     21  N   UNL     1      52.068 163.779  39.624  0.00  0.00    +0.000 NA
ATOM     22  C   UNL     1      52.920 164.982  39.534  0.00  0.00    +0.000 C 
ATOM     23  C   UNL     1      53.404 165.322  40.957  0.00  0.00    +0.000 C 
ATOM     24  H   UNL     1      51.106 164.091  39.803  0.00  0.00    +0.000 HD
BRANCH  19  28
ATOM     25  C   UNL     1      49.889 163.994  41.763  0.00  0.00    +0.000 C 
ATOM     26  N   UNL     1      50.219 162.578  41.732  0.00  0.00    +0.000 N 
ATOM     27  C   UNL     1      49.217 161.630  42.192  0.00  0.00    +0.000 C 
ATOM     28  C   UNL     1      51.457 162.073  41.332  0.00  0.00    +0.000 C 
ATOM     29  O   UNL     1      51.701 160.864  41.388  0.00  0.00    +0.000 OA
ENDBRANCH  19  28
ENDBRANCH  18  23
ENDBRANCH   1  18
TORSDOF 7
ENDMDL
MODEL 6
REMARK VINA RESULT:    -4.575      2.461      7.046
REMARK INTER + INTRA:          -4.867
REMARK INTER:                  -3.940
REMARK INTRA:                  -0.927
REMARK UNBOUND:                 1.312
REMARK  Name = MEM
REMARK  11 active torsions:
REMARK  status: ('A' for Active; 'I' for Inactive)
REMARK    1  A    between atoms: C_1  and  N_2
REMARK    2  A    between atoms: N_2  and  C_3
REMARK    3  A    between atoms: C_4  and  C_6
REMARK    4  A    between atoms: C_10  and  S_11
REMARK    5  A    between atoms: S_11  and  C_12
REMARK    6  A    between atoms: C_13  and  C_14
REMARK    7  A    between atoms: C_16  and  C_17
REMARK    8  A    between atoms: C_17  and  C_18
REMARK    9  A    between atoms: C_17  and  O_19
REMARK   10  A    between atoms: C_23  and  C_24
REMARK   11  A    between atoms: C_24  and  O_26
REMARK                            x       y       z     vdW  Elec       q    Type
REMARK                         _______ _______ _______ _____ _____    ______ ____
ROOT
ATOM      1  C   UNL     1      56.632 165.902  41.965  0.00  0.00    +0.000 C 
ATOM      2  C   UNL     1      55.135 165.660  41.984  0.00  0.00    +0.000 C 
ATOM      3  C   UNL     1      54.636 164.948  40.727  0.00  0.00    +0.000 C 
ATOM      4  C   UNL     1      54.593 167.094  42.076  0.00  0.00    +0.000 C 
ATOM      5  C   UNL     1      53.773 167.855  40.985  0.00  0.00    +0.000 C 
ATOM      6  C   UNL     1      55.140 168.454  40.570  0.00  0.00    +0.000 C 
ATOM      7  O   UNL     1      55.579 169.009  39.593  0.00  0.00    +0.000 OA
ATOM      8  N   UNL     1      55.738 167.963  41.703  0.00  0.00    +0.000 N 
ATOM      9  C   UNL     1      56.891 167.196  41.686  0.00  0.00    +0.000 C 
ENDROOT
BRANCH   5  10
ATOM     10  C   UNL     1      52.737 168.802  41.568  0.00  0.00    +0.000 C 
ATOM     11  C   UNL     1      52.358 169.899  40.586  0.00  0.00    +0.000 C 
BRANCH  10  12
ATOM     12  O   UNL     1      51.570 168.026  41.851  0.00  0.00    +0.000 OA
ATOM     13  H   UNL     1      51.415 168.068  42.811  0.00  0.00    +0.000 HD
ENDBRANCH  10  12
ENDBRANCH   5  10
BRANCH   9  14
ATOM     14  C   UNL     1      58.201 167.816  41.394  0.00  0.00    +0.000 C 
ATOM     15  O   UNL     1      58.999 168.275  42.192  0.00  0.00    +0.000 OA
BRANCH  14  16
ATOM     16  O   UNL     1      58.459 167.853  40.070  0.00  0.00    +0.000 OA
ATOM     17  H   UNL     1      59.427 167.726  40.013  0.00  0.00    +0.000 HD
ENDBRANCH  14  16
ENDBRANCH   9  14
BRANCH   1  18
ATOM     18  S   UNL     1      57.729 164.588  42.169  0.00  0.00    +0.000 S 
BRANCH  18  23
ATOM     19  C   UNL     1      59.081 163.245  38.625  0.00  0.00    +0.000 C 
ATOM     20  C   UNL     1      58.555 164.416  39.459  0.00  0.00    +0.000 C 
ATOM     21  N   UNL     1      59.380 162.221  39.656  0.00  0.00    +0.000 NA
ATOM     22  C   UNL     1      58.267 162.321  40.621  0.00  0.00    +0.000 C 
ATOM     23  C   UNL     1      57.699 163.751  40.537  0.00  0.00    +0.000 C 
ATOM     24  H   UNL     1      60.238 162.517  40.137  0.00  0.00    +0.000 HD
BRANCH  19  28
ATOM     25  C   UNL     1      58.970 163.786  35.732  0.00  0.00    +0.000 C 
ATOM     26  N   UNL     1      60.228 163.855  36.457  0.00  0.00    +0.000 N 
ATOM     27  C   UNL     1      61.434 164.173  35.709  0.00  0.00    +0.000 C 
ATOM     28  C   UNL     1      60.359 163.588  37.820  0.00  0.00    +0.000 C 
ATOM     29  O   UNL     1      61.465 163.601  38.368  0.00  0.00    +0.000 OA
ENDBRANCH  19  28
ENDBRANCH  18  23
ENDBRANCH   1  18
TORSDOF 7
ENDMDL
MODEL 7
REMARK VINA RESULT:    -3.769      4.246      6.280
REMARK INTER + INTRA:          -3.779
REMARK INTER:                  -3.608
REMARK INTRA:                  -0.171
REMARK UNBOUND:                 1.312
REMARK  Name = MEM
REMARK  11 active torsions:
REMARK  status: ('A' for Active; 'I' for Inactive)
REMARK    1  A    between atoms: C_1  and  N_2
REMARK    2  A    between atoms: N_2  and  C_3
REMARK    3  A    between atoms: C_4  and  C_6
REMARK    4  A    between atoms: C_10  and  S_11
REMARK    5  A    between atoms: S_11  and  C_12
REMARK    6  A    between atoms: C_13  and  C_14
REMARK    7  A    between atoms: C_16  and  C_17
REMARK    8  A    between atoms: C_17  and  C_18
REMARK    9  A    between atoms: C_17  and  O_19
REMARK   10  A    between atoms: C_23  and  C_24
REMARK   11  A    between atoms: C_24  and  O_26
REMARK                            x       y       z     vdW  Elec       q    Type
REMARK                         _______ _______ _______ _____ _____    ______ ____
ROOT
ATOM      1  C   UNL     1      53.663 166.889  40.264  0.00  0.00    +0.000 C 
ATOM      2  C   UNL     1      52.233 166.487  40.568  0.00  0.00    +0.000 C 
ATOM      3  C   UNL     1      51.820 166.814  42.003  0.00  0.00    +0.000 C 
ATOM      4  C   UNL     1      52.280 164.972  40.322  0.00  0.00    +0.000 C 
ATOM      5  C   UNL     1      52.109 163.846  41.392  0.00  0.00    +0.000 C 
ATOM      6  C   UNL     1      53.658 163.835  41.430  0.00  0.00    +0.000 C 
ATOM      7  O   UNL     1      54.500 163.430  42.192  0.00  0.00    +0.000 OA
ATOM      8  N   UNL     1      53.725 164.628  40.313  0.00  0.00    +0.000 N 
ATOM      9  C   UNL     1      54.459 165.801  40.252  0.00  0.00    +0.000 C 
ENDROOT
BRANCH   5  10
ATOM     10  C   UNL     1      51.410 162.609  40.852  0.00  0.00    +0.000 C 
ATOM     11  C   UNL     1      51.555 161.423  41.791  0.00  0.00    +0.000 C 
BRANCH  10  12
ATOM     12  O   UNL     1      50.021 162.928  40.737  0.00  0.00    +0.000 OA
ATOM     13  H   UNL     1      49.948 163.893  40.639  0.00  0.00    +0.000 HD
ENDBRANCH  10  12
ENDBRANCH   5  10
BRANCH   9  14
ATOM     14  C   UNL     1      55.936 165.760  40.178  0.00  0.00    +0.000 C 
ATOM     15  O   UNL     1      56.629 165.748  39.175  0.00  0.00    +0.000 OA
BRANCH  14  16
ATOM     16  O   UNL     1      56.502 165.713  41.402  0.00  0.00    +0.000 OA
ATOM     17  H   UNL     1      57.017 164.882  41.394  0.00  0.00    +0.000 HD
ENDBRANCH  14  16
ENDBRANCH   9  14
BRANCH   1  18
ATOM     18  S   UNL     1      54.083 168.553  40.098  0.00  0.00    +0.000 S 
BRANCH  18  23
ATOM     19  C   UNL     1      57.620 169.771  41.579  0.00  0.00    +0.000 C 
ATOM     20  C   UNL     1      56.845 168.778  40.709  0.00  0.00    +0.000 C 
ATOM     21  N   UNL     1      56.624 170.844  41.813  0.00  0.00    +0.000 NA
ATOM     22  C   UNL     1      55.347 170.132  42.030  0.00  0.00    +0.000 C 
ATOM     23  C   UNL     1      55.441 168.772  41.312  0.00  0.00    +0.000 C 
ATOM     24  H   UNL     1      56.540 171.376  40.939  0.00  0.00    +0.000 HD
BRANCH  19  28
ATOM     25  C   UNL     1      60.315 168.750  42.192  0.00  0.00    +0.000 C 
ATOM     26  N   UNL     1      60.121 169.800  41.205  0.00  0.00    +0.000 N 
ATOM     27  C   UNL     1      61.296 170.351  40.549  0.00  0.00    +0.000 C 
ATOM     28  C   UNL     1      58.879 170.347  40.882  0.00  0.00    +0.000 C 
ATOM     29  O   UNL     1      58.783 171.282  40.082  0.00  0.00    +0.000 OA
ENDBRANCH  19  28
ENDBRANCH  18  23
ENDBRANCH   1  18
TORSDOF 7
ENDMDL
MODEL 8
REMARK VINA RESULT:    -3.159      4.658      6.608
REMARK INTER + INTRA:          -2.955
REMARK INTER:                  -4.041
REMARK INTRA:                   1.086
REMARK UNBOUND:                 1.312
REMARK  Name = MEM
REMARK  11 active torsions:
REMARK  status: ('A' for Active; 'I' for Inactive)
REMARK    1  A    between atoms: C_1  and  N_2
REMARK    2  A    between atoms: N_2  and  C_3
REMARK    3  A    between atoms: C_4  and  C_6
REMARK    4  A    between atoms: C_10  and  S_11
REMARK    5  A    between atoms: S_11  and  C_12
REMARK    6  A    between atoms: C_13  and  C_14
REMARK    7  A    between atoms: C_16  and  C_17
REMARK    8  A    between atoms: C_17  and  C_18
REMARK    9  A    between atoms: C_17  and  O_19
REMARK   10  A    between atoms: C_23  and  C_24
REMARK   11  A    between atoms: C_24  and  O_26
REMARK                            x       y       z     vdW  Elec       q    Type
REMARK                         _______ _______ _______ _____ _____    ______ ____
ROOT
ATOM      1  C   UNL     1      54.276 168.678  41.080  0.00  0.00    +0.000 C 
ATOM      2  C   UNL     1      52.839 168.236  40.882  0.00  0.00    +0.000 C 
ATOM      3  C   UNL     1      52.054 168.177  42.192  0.00  0.00    +0.000 C 
ATOM      4  C   UNL     1      53.028 166.840  40.270  0.00  0.00    +0.000 C 
ATOM      5  C   UNL     1      52.647 165.473  40.924  0.00  0.00    +0.000 C 
ATOM      6  C   UNL     1      54.132 165.425  41.364  0.00  0.00    +0.000 C 
ATOM      7  O   UNL     1      54.770 164.816  42.187  0.00  0.00    +0.000 OA
ATOM      8  N   UNL     1      54.443 166.486  40.551  0.00  0.00    +0.000 N 
ATOM      9  C   UNL     1      55.105 167.619  40.994  0.00  0.00    +0.000 C 
ENDROOT
BRANCH   5  10
ATOM     10  C   UNL     1      52.178 164.438  39.916  0.00  0.00    +0.000 C 
ATOM     11  C   UNL     1      52.318 163.022  40.453  0.00  0.00    +0.000 C 
BRANCH  10  12
ATOM     12  O   UNL     1      50.793 164.692  39.667  0.00  0.00    +0.000 OA
ATOM     13  H   UNL     1      50.499 164.069  38.978  0.00  0.00    +0.000 HD
ENDBRANCH  10  12
ENDBRANCH   5  10
BRANCH   9  14
ATOM     14  C   UNL     1      56.551 167.572  41.302  0.00  0.00    +0.000 C 
ATOM     15  O   UNL     1      57.139 168.159  42.192  0.00  0.00    +0.000 OA
BRANCH  14  16
ATOM     16  O   UNL     1      57.225 166.780  40.442  0.00  0.00    +0.000 OA
ATOM     17  H   UNL     1      58.134 167.140  40.450  0.00  0.00    +0.000 HD
ENDBRANCH  14  16
ENDBRANCH   9  14
BRANCH   1  18
ATOM     18  S   UNL     1      54.636 170.319  41.471  0.00  0.00    +0.000 S 
BRANCH  18  23
ATOM     19  C   UNL     1      58.072 170.672  39.408  0.00  0.00    +0.000 C 
ATOM     20  C   UNL     1      57.205 171.133  40.583  0.00  0.00    +0.000 C 
ATOM     21  N   UNL     1      57.395 169.426  38.974  0.00  0.00    +0.000 NA
ATOM     22  C   UNL     1      55.951 169.726  39.075  0.00  0.00    +0.000 C 
ATOM     23  C   UNL     1      55.776 170.836  40.130  0.00  0.00    +0.000 C 
ATOM     24  H   UNL     1      57.613 168.704  39.671  0.00  0.00    +0.000 HD
BRANCH  19  28
ATOM     25  C   UNL     1      59.568 168.442  38.196  0.00  0.00    +0.000 C 
ATOM     26  N   UNL     1      60.194 169.319  39.173  0.00  0.00    +0.000 N 
ATOM     27  C   UNL     1      61.571 169.047  39.556  0.00  0.00    +0.000 C 
ATOM     28  C   UNL     1      59.540 170.377  39.804  0.00  0.00    +0.000 C 
ATOM     29  O   UNL     1      60.105 171.047  40.674  0.00  0.00    +0.000 OA
ENDBRANCH  19  28
ENDBRANCH  18  23
ENDBRANCH   1  18
TORSDOF 7
ENDMDL
MODEL 9
REMARK VINA RESULT:    -2.577      3.070      6.922
REMARK INTER + INTRA:          -2.169
REMARK INTER:                  -3.481
REMARK INTRA:                   1.312
REMARK UNBOUND:                 1.312
REMARK  Name = MEM
REMARK  11 active torsions:
REMARK  status: ('A' for Active; 'I' for Inactive)
REMARK    1  A    between atoms: C_1  and  N_2
REMARK    2  A    between atoms: N_2  and  C_3
REMARK    3  A    between atoms: C_4  and  C_6
REMARK    4  A    between atoms: C_10  and  S_11
REMARK    5  A    between atoms: S_11  and  C_12
REMARK    6  A    between atoms: C_13  and  C_14
REMARK    7  A    between atoms: C_16  and  C_17
REMARK    8  A    between atoms: C_17  and  C_18
REMARK    9  A    between atoms: C_17  and  O_19
REMARK   10  A    between atoms: C_23  and  C_24
REMARK   11  A    between atoms: C_24  and  O_26
REMARK                            x       y       z     vdW  Elec       q    Type
REMARK                         _______ _______ _______ _____ _____    ______ ____
ROOT
ATOM      1  C   UNL     1      55.999 165.654  41.997  0.00  0.00    +0.000 C 
ATOM      2  C   UNL     1      54.501 165.563  41.778  0.00  0.00    +0.000 C 
ATOM      3  C   UNL     1      54.137 165.161  40.349  0.00  0.00    +0.000 C 
ATOM      4  C   UNL     1      54.056 166.999  42.094  0.00  0.00    +0.000 C 
ATOM      5  C   UNL     1      53.457 168.034  41.088  0.00  0.00    +0.000 C 
ATOM      6  C   UNL     1      54.909 168.564  40.980  0.00  0.00    +0.000 C 
ATOM      7  O   UNL     1      55.522 169.251  40.201  0.00  0.00    +0.000 OA
ATOM      8  N   UNL     1      55.302 167.806  42.054  0.00  0.00    +0.000 N 
ATOM      9  C   UNL     1      56.387 166.945  42.025  0.00  0.00    +0.000 C 
ENDROOT
BRANCH   5  10
ATOM     10  C   UNL     1      52.420 168.948  41.718  0.00  0.00    +0.000 C 
ATOM     11  C   UNL     1      52.240 170.232  40.923  0.00  0.00    +0.000 C 
BRANCH  10  12
ATOM     12  O   UNL     1      51.178 168.239  41.718  0.00  0.00    +0.000 OA
ATOM     13  H   UNL     1      51.353 167.341  41.384  0.00  0.00    +0.000 HD
ENDBRANCH  10  12
ENDBRANCH   5  10
BRANCH   9  14
ATOM     14  C   UNL     1      57.767 167.477  42.034  0.00  0.00    +0.000 C 
ATOM     15  O   UNL     1      58.802 166.853  42.192  0.00  0.00    +0.000 OA
BRANCH  14  16
ATOM     16  O   UNL     1      57.795 168.815  41.858  0.00  0.00    +0.000 OA
ATOM     17  H   UNL     1      56.867 169.046  41.654  0.00  0.00    +0.000 HD
ENDBRANCH  14  16
ENDBRANCH   9  14
BRANCH   1  18
ATOM     18  S   UNL     1      56.958 164.223  42.063  0.00  0.00    +0.000 S 
BRANCH  18  23
ATOM     19  C   UNL     1      58.978 165.088  38.693  0.00  0.00    +0.000 C 
ATOM     20  C   UNL     1      57.764 165.352  39.587  0.00  0.00    +0.000 C 
ATOM     21  N   UNL     1      59.865 164.292  39.576  0.00  0.00    +0.000 NA
ATOM     22  C   UNL     1      58.957 163.378  40.299  0.00  0.00    +0.000 C 
ATOM     23  C   UNL     1      57.565 164.038  40.342  0.00  0.00    +0.000 C 
ATOM     24  H   UNL     1      60.268 164.940  40.264  0.00  0.00    +0.000 HD
BRANCH  19  28
ATOM     25  C   UNL     1      61.545 165.920  39.875  0.00  0.00    +0.000 C 
ATOM     26  N   UNL     1      60.920 166.702  38.820  0.00  0.00    +0.000 N 
ATOM     27  C   UNL     1      61.584 167.920  38.384  0.00  0.00    +0.000 C 
ATOM     28  C   UNL     1      59.696 166.381  38.232  0.00  0.00    +0.000 C 
ATOM     29  O   UNL     1      59.184 167.119  37.385  0.00  0.00    +0.000 OA
ENDBRANCH  19  28
ENDBRANCH  18  23
ENDBRANCH   1  18
TORSDOF 7
ENDMDL
MODEL 10
REMARK VINA RESULT:    -2.559      3.107      7.823
REMARK INTER + INTRA:          -2.145
REMARK INTER:                  -3.876
REMARK INTRA:                   1.731
REMARK UNBOUND:                 1.312
REMARK  Name = MEM
REMARK  11 active torsions:
REMARK  status: ('A' for Active; 'I' for Inactive)
REMARK    1  A    between atoms: C_1  and  N_2
REMARK    2  A    between atoms: N_2  and  C_3
REMARK    3  A    between atoms: C_4  and  C_6
REMARK    4  A    between atoms: C_10  and  S_11
REMARK    5  A    between atoms: S_11  and  C_12
REMARK    6  A    between atoms: C_13  and  C_14
REMARK    7  A    between atoms: C_16  and  C_17
REMARK    8  A    between atoms: C_17  and  C_18
REMARK    9  A    between atoms: C_17  and  O_19
REMARK   10  A    between atoms: C_23  and  C_24
REMARK   11  A    between atoms: C_24  and  O_26
REMARK                            x       y       z     vdW  Elec       q    Type
REMARK                         _______ _______ _______ _____ _____    ______ ____
ROOT
ATOM      1  C   UNL     1      54.421 165.856  41.251  0.00  0.00    +0.000 C 
ATOM      2  C   UNL     1      52.916 165.859  41.442  0.00  0.00    +0.000 C 
ATOM      3  C   UNL     1      52.155 165.604  40.141  0.00  0.00    +0.000 C 
ATOM      4  C   UNL     1      52.676 167.282  41.968  0.00  0.00    +0.000 C 
ATOM      5  C   UNL     1      51.907 168.431  41.241  0.00  0.00    +0.000 C 
ATOM      6  C   UNL     1      53.312 168.895  40.779  0.00  0.00    +0.000 C 
ATOM      7  O   UNL     1      53.742 169.616  39.914  0.00  0.00    +0.000 OA
ATOM      8  N   UNL     1      53.921 168.026  41.649  0.00  0.00    +0.000 N 
ATOM      9  C   UNL     1      54.894 167.118  41.264  0.00  0.00    +0.000 C 
ENDROOT
BRANCH   5  10
ATOM     10  C   UNL     1      51.145 169.337  42.193  0.00  0.00    +0.000 C 
ATOM     11  C   UNL     1      51.181 170.789  41.742  0.00  0.00    +0.000 C 
BRANCH  10  12
ATOM     12  O   UNL     1      49.784 168.898  42.192  0.00  0.00    +0.000 OA
ATOM     13  H   UNL     1      49.254 169.584  41.749  0.00  0.00    +0.000 HD
ENDBRANCH  10  12
ENDBRANCH   5  10
BRANCH   9  14
ATOM     14  C   UNL     1      56.261 167.576  40.935  0.00  0.00    +0.000 C 
ATOM     15  O   UNL     1      57.133 167.928  41.710  0.00  0.00    +0.000 OA
BRANCH  14  16
ATOM     16  O   UNL     1      56.481 167.594  39.603  0.00  0.00    +0.000 OA
ATOM     17  H   UNL     1      57.404 167.284  39.511  0.00  0.00    +0.000 HD
ENDBRANCH  14  16
ENDBRANCH   9  14
BRANCH   1  18
ATOM     18  S   UNL     1      55.256 164.377  40.951  0.00  0.00    +0.000 S 
BRANCH  18  23
ATOM     19  C   UNL     1      59.256 163.967  41.104  0.00  0.00    +0.000 C 
ATOM     20  C   UNL     1      57.919 163.983  41.851  0.00  0.00    +0.000 C 
ATOM     21  N   UNL     1      58.834 163.893  39.685  0.00  0.00    +0.000 NA
ATOM     22  C   UNL     1      57.664 164.791  39.590  0.00  0.00    +0.000 C 
ATOM     23  C   UNL     1      57.022 164.872  40.989  0.00  0.00    +0.000 C 
ATOM     24  H   UNL     1      58.507 162.935  39.516  0.00  0.00    +0.000 HD
BRANCH  19  28
ATOM     25  C   UNL     1      58.224 161.212  40.965  0.00  0.00    +0.000 C 
ATOM     26  N   UNL     1      59.599 161.476  41.355  0.00  0.00    +0.000 N 
ATOM     27  C   UNL     1      60.443 160.343  41.701  0.00  0.00    +0.000 C 
ATOM     28  C   UNL     1      60.148 162.754  41.466  0.00  0.00    +0.000 C 
ATOM     29  O   UNL     1      61.305 162.918  41.864  0.00  0.00    +0.000 OA
ENDBRANCH  19  28
ENDBRANCH  18  23
ENDBRANCH   1  18
TORSDOF 7
ENDMDL
