MODEL 1
REMARK VINA RESULT:    -4.582      0.000      0.000
REMARK INTER + INTRA:          -6.788
REMARK INTER:                  -6.593
REMARK INTRA:                  -0.195
REMARK UNBOUND:                -0.598
REMARK  Name = 26757
REMARK  7 active torsions:
REMARK  status: ('A' for Active; 'I' for Inactive)
REMARK    1  A    between atoms: N_1  and  C_2
REMARK    2  A    between atoms: N_1  and  C_6
REMARK    3  A    between atoms: N_1  and  C_7
REMARK    4  A    between atoms: C_2  and  C_3
REMARK    5  A    between atoms: C_2  and  C_4
REMARK    6  A    between atoms: C_3  and  C_5
REMARK    7  A    between atoms: C_6  and  C_13
REMARK                            x       y       z     vdW  Elec       q    Type
REMARK                         _______ _______ _______ _____ _____    ______ ____
ROOT
ATOM      1  C   UNL     1      52.230 155.852  28.221  0.00  0.00    +0.000 C 
ATOM      2  H   UNL     1      53.226 155.488  28.514  0.00  0.00    +0.000 HD
ENDROOT
BRANCH   1   3
ATOM      3  C   UNL     1      52.036 157.123  29.070  0.00  0.00    +0.000 C 
ATOM      4  H   UNL     1      51.402 157.851  28.552  0.00  0.00    +0.000 HD
ATOM      5  H   UNL     1      51.519 156.886  30.007  0.00  0.00    +0.000 HD
ATOM      6  H   UNL     1      52.981 157.611  29.318  0.00  0.00    +0.000 HD
ENDBRANCH   1   3
BRANCH   1   7
ATOM      7  C   UNL     1      52.371 156.240  26.713  0.00  0.00    +0.000 C 
ATOM      8  H   UNL     1      51.381 156.549  26.354  0.00  0.00    +0.000 HD
ATOM      9  H   UNL     1      52.991 157.147  26.673  0.00  0.00    +0.000 HD
BRANCH   7  10
ATOM     10  C   UNL     1      52.943 155.298  25.669  0.00  0.00    +0.000 A 
ATOM     11  C   UNL     1      52.384 154.074  25.299  0.00  0.00    +0.000 A 
ATOM     12  C   UNL     1      54.150 155.687  25.052  0.00  0.00    +0.000 A 
ATOM     13  C   UNL     1      53.045 153.232  24.393  0.00  0.00    +0.000 A 
ATOM     14  C   UNL     1      54.815 154.847  24.158  0.00  0.00    +0.000 A 
ATOM     15  C   UNL     1      54.269 153.609  23.842  0.00  0.00    +0.000 A 
ATOM     16  H   UNL     1      51.443 153.736  25.721  0.00  0.00    +0.000 HD
ATOM     17  H   UNL     1      54.595 156.652  25.289  0.00  0.00    +0.000 HD
ATOM     18  H   UNL     1      52.609 152.272  24.133  0.00  0.00    +0.000 HD
ATOM     19  H   UNL     1      55.760 155.155  23.723  0.00  0.00    +0.000 HD
ATOM     20  H   UNL     1      54.798 152.936  23.173  0.00  0.00    +0.000 HD
ENDBRANCH   7  10
ENDBRANCH   1   7
BRANCH   1  21
ATOM     21  N   UNL     1      51.249 154.775  28.519  0.00  0.00    +0.000 NA
BRANCH  21  22
ATOM     22  C   UNL     1      50.240 155.164  29.508  0.00  0.00    +0.000 C 
ATOM     23  H   UNL     1      49.272 155.353  29.034  0.00  0.00    +0.000 HD
ATOM     24  H   UNL     1      50.055 154.349  30.221  0.00  0.00    +0.000 HD
ATOM     25  H   UNL     1      50.529 156.054  30.077  0.00  0.00    +0.000 HD
ENDBRANCH  21  22
BRANCH  21  26
ATOM     26  C   UNL     1      51.879 153.500  28.920  0.00  0.00    +0.000 C 
ATOM     27  H   UNL     1      52.960 153.651  29.038  0.00  0.00    +0.000 HD
ATOM     28  H   UNL     1      51.533 153.203  29.915  0.00  0.00    +0.000 HD
BRANCH  26  29
ATOM     29  C   UNL     1      51.651 152.393  27.968  0.00  0.00    +0.000 C 
ATOM     30  C   UNL     1      51.461 151.503  27.182  0.00  0.00    +0.000 C 
ATOM     31  H   UNL     1      51.272 150.729  26.479  0.00  0.00    +0.000 HD
ENDBRANCH  26  29
ENDBRANCH  21  26
ENDBRANCH   1  21
TORSDOF 7
ENDMDL
MODEL 2
REMARK VINA RESULT:    -4.503      1.002      2.866
REMARK INTER + INTRA:          -6.681
REMARK INTER:                  -6.657
REMARK INTRA:                  -0.024
REMARK UNBOUND:                -0.598
REMARK  Name = 26757
REMARK  7 active torsions:
REMARK  status: ('A' for Active; 'I' for Inactive)
REMARK    1  A    between atoms: N_1  and  C_2
REMARK    2  A    between atoms: N_1  and  C_6
REMARK    3  A    between atoms: N_1  and  C_7
REMARK    4  A    between atoms: C_2  and  C_3
REMARK    5  A    between atoms: C_2  and  C_4
REMARK    6  A    between atoms: C_3  and  C_5
REMARK    7  A    between atoms: C_6  and  C_13
REMARK                            x       y       z     vdW  Elec       q    Type
REMARK                         _______ _______ _______ _____ _____    ______ ____
ROOT
ATOM      1  C   UNL     1      51.402 153.573  27.590  0.00  0.00    +0.000 C 
ATOM      2  H   UNL     1      50.519 152.974  27.854  0.00  0.00    +0.000 HD
ENDROOT
BRANCH   1   3
ATOM      3  C   UNL     1      52.589 152.699  28.038  0.00  0.00    +0.000 C 
ATOM      4  H   UNL     1      53.541 153.123  27.700  0.00  0.00    +0.000 HD
ATOM      5  H   UNL     1      52.648 152.659  29.132  0.00  0.00    +0.000 HD
ATOM      6  H   UNL     1      52.522 151.675  27.663  0.00  0.00    +0.000 HD
ENDBRANCH   1   3
BRANCH   1   7
ATOM      7  C   UNL     1      51.373 153.666  26.030  0.00  0.00    +0.000 C 
ATOM      8  H   UNL     1      51.037 152.695  25.643  0.00  0.00    +0.000 HD
ATOM      9  H   UNL     1      50.574 154.375  25.768  0.00  0.00    +0.000 HD
BRANCH   7  10
ATOM     10  C   UNL     1      52.579 154.075  25.204  0.00  0.00    +0.000 A 
ATOM     11  C   UNL     1      53.363 153.206  24.443  0.00  0.00    +0.000 A 
ATOM     12  C   UNL     1      52.946 155.435  25.240  0.00  0.00    +0.000 A 
ATOM     13  C   UNL     1      54.516 153.668  23.794  0.00  0.00    +0.000 A 
ATOM     14  C   UNL     1      54.099 155.896  24.603  0.00  0.00    +0.000 A 
ATOM     15  C   UNL     1      54.896 155.006  23.894  0.00  0.00    +0.000 A 
ATOM     16  H   UNL     1      53.112 152.153  24.357  0.00  0.00    +0.000 HD
ATOM     17  H   UNL     1      52.337 156.148  25.793  0.00  0.00    +0.000 HD
ATOM     18  H   UNL     1      55.129 152.975  23.225  0.00  0.00    +0.000 HD
ATOM     19  H   UNL     1      54.378 156.943  24.674  0.00  0.00    +0.000 HD
ATOM     20  H   UNL     1      55.812 155.351  23.424  0.00  0.00    +0.000 HD
ENDBRANCH   7  10
ENDBRANCH   1   7
BRANCH   1  21
ATOM     21  N   UNL     1      51.304 154.868  28.314  0.00  0.00    +0.000 NA
BRANCH  21  22
ATOM     22  C   UNL     1      52.576 155.591  28.392  0.00  0.00    +0.000 C 
ATOM     23  H   UNL     1      52.830 155.837  29.427  0.00  0.00    +0.000 HD
ATOM     24  H   UNL     1      53.405 154.966  28.035  0.00  0.00    +0.000 HD
ATOM     25  H   UNL     1      52.571 156.516  27.805  0.00  0.00    +0.000 HD
ENDBRANCH  21  22
BRANCH  21  26
ATOM     26  C   UNL     1      50.714 154.745  29.663  0.00  0.00    +0.000 C 
ATOM     27  H   UNL     1      50.506 153.687  29.873  0.00  0.00    +0.000 HD
ATOM     28  H   UNL     1      51.445 155.036  30.424  0.00  0.00    +0.000 HD
BRANCH  26  29
ATOM     29  C   UNL     1      49.472 155.523  29.848  0.00  0.00    +0.000 C 
ATOM     30  C   UNL     1      48.457 156.153  29.984  0.00  0.00    +0.000 C 
ATOM     31  H   UNL     1      47.564 156.722  30.080  0.00  0.00    +0.000 HD
ENDBRANCH  26  29
ENDBRANCH  21  26
ENDBRANCH   1  21
TORSDOF 7
ENDMDL
MODEL 3
REMARK VINA RESULT:    -4.354      1.363      4.533
REMARK INTER + INTRA:          -6.480
REMARK INTER:                  -6.573
REMARK INTRA:                   0.093
REMARK UNBOUND:                -0.598
REMARK  Name = 26757
REMARK  7 active torsions:
REMARK  status: ('A' for Active; 'I' for Inactive)
REMARK    1  A    between atoms: N_1  and  C_2
REMARK    2  A    between atoms: N_1  and  C_6
REMARK    3  A    between atoms: N_1  and  C_7
REMARK    4  A    between atoms: C_2  and  C_3
REMARK    5  A    between atoms: C_2  and  C_4
REMARK    6  A    between atoms: C_3  and  C_5
REMARK    7  A    between atoms: C_6  and  C_13
REMARK                            x       y       z     vdW  Elec       q    Type
REMARK                         _______ _______ _______ _____ _____    ______ ____
ROOT
ATOM      1  C   UNL     1      53.226 155.509  25.345  0.00  0.00    +0.000 C 
ATOM      2  H   UNL     1      52.191 155.714  25.036  0.00  0.00    +0.000 HD
ENDROOT
BRANCH   1   3
ATOM      3  C   UNL     1      54.077 156.315  24.346  0.00  0.00    +0.000 C 
ATOM      4  H   UNL     1      54.050 155.863  23.349  0.00  0.00    +0.000 HD
ATOM      5  H   UNL     1      53.677 157.329  24.228  0.00  0.00    +0.000 HD
ATOM      6  H   UNL     1      55.122 156.396  24.654  0.00  0.00    +0.000 HD
ENDBRANCH   1   3
BRANCH   1   7
ATOM      7  C   UNL     1      53.351 156.133  26.773  0.00  0.00    +0.000 C 
ATOM      8  H   UNL     1      54.337 155.861  27.171  0.00  0.00    +0.000 HD
ATOM      9  H   UNL     1      53.382 157.225  26.642  0.00  0.00    +0.000 HD
BRANCH   7  10
ATOM     10  C   UNL     1      52.343 155.875  27.878  0.00  0.00    +0.000 A 
ATOM     11  C   UNL     1      51.833 154.622  28.223  0.00  0.00    +0.000 A 
ATOM     12  C   UNL     1      51.870 156.999  28.586  0.00  0.00    +0.000 A 
ATOM     13  C   UNL     1      50.830 154.504  29.196  0.00  0.00    +0.000 A 
ATOM     14  C   UNL     1      50.865 156.885  29.547  0.00  0.00    +0.000 A 
ATOM     15  C   UNL     1      50.332 155.635  29.839  0.00  0.00    +0.000 A 
ATOM     16  H   UNL     1      52.180 153.720  27.730  0.00  0.00    +0.000 HD
ATOM     17  H   UNL     1      52.273 157.987  28.369  0.00  0.00    +0.000 HD
ATOM     18  H   UNL     1      50.426 153.525  29.436  0.00  0.00    +0.000 HD
ATOM     19  H   UNL     1      50.494 157.770  30.054  0.00  0.00    +0.000 HD
ATOM     20  H   UNL     1      49.527 155.543  30.563  0.00  0.00    +0.000 HD
ENDBRANCH   7  10
ENDBRANCH   1   7
BRANCH   1  21
ATOM     21  N   UNL     1      53.439 154.039  25.265  0.00  0.00    +0.000 NA
BRANCH  21  22
ATOM     22  C   UNL     1      54.456 153.650  24.284  0.00  0.00    +0.000 C 
ATOM     23  H   UNL     1      54.796 154.512  23.702  0.00  0.00    +0.000 HD
ATOM     24  H   UNL     1      55.355 153.267  24.782  0.00  0.00    +0.000 HD
ATOM     25  H   UNL     1      54.098 152.882  23.590  0.00  0.00    +0.000 HD
ENDBRANCH  21  22
BRANCH  21  26
ATOM     26  C   UNL     1      52.197 153.276  25.029  0.00  0.00    +0.000 C 
ATOM     27  H   UNL     1      51.361 153.976  24.893  0.00  0.00    +0.000 HD
ATOM     28  H   UNL     1      52.259 152.735  24.080  0.00  0.00    +0.000 HD
BRANCH  26  29
ATOM     29  C   UNL     1      51.858 152.331  26.114  0.00  0.00    +0.000 C 
ATOM     30  C   UNL     1      51.577 151.574  27.006  0.00  0.00    +0.000 C 
ATOM     31  H   UNL     1      51.340 150.923  27.811  0.00  0.00    +0.000 HD
ENDBRANCH  26  29
ENDBRANCH  21  26
ENDBRANCH   1  21
TORSDOF 7
ENDMDL
MODEL 4
REMARK VINA RESULT:    -4.343      0.796      2.227
REMARK INTER + INTRA:          -6.465
REMARK INTER:                  -6.368
REMARK INTRA:                  -0.097
REMARK UNBOUND:                -0.598
REMARK  Name = 26757
REMARK  7 active torsions:
REMARK  status: ('A' for Active; 'I' for Inactive)
REMARK    1  A    between atoms: N_1  and  C_2
REMARK    2  A    between atoms: N_1  and  C_6
REMARK    3  A    between atoms: N_1  and  C_7
REMARK    4  A    between atoms: C_2  and  C_3
REMARK    5  A    between atoms: C_2  and  C_4
REMARK    6  A    between atoms: C_3  and  C_5
REMARK    7  A    between atoms: C_6  and  C_13
REMARK                            x       y       z     vdW  Elec       q    Type
REMARK                         _______ _______ _______ _____ _____    ______ ____
ROOT
ATOM      1  C   UNL     1      52.429 155.370  27.996  0.00  0.00    +0.000 C 
ATOM      2  H   UNL     1      53.491 155.086  28.046  0.00  0.00    +0.000 HD
ENDROOT
BRANCH   1   3
ATOM      3  C   UNL     1      52.380 156.741  28.697  0.00  0.00    +0.000 C 
ATOM      4  H   UNL     1      52.584 157.553  27.991  0.00  0.00    +0.000 HD
ATOM      5  H   UNL     1      51.378 156.934  29.098  0.00  0.00    +0.000 HD
ATOM      6  H   UNL     1      53.095 156.819  29.519  0.00  0.00    +0.000 HD
ENDBRANCH   1   3
BRANCH   1   7
ATOM      7  C   UNL     1      52.130 155.544  26.472  0.00  0.00    +0.000 C 
ATOM      8  H   UNL     1      51.061 155.349  26.317  0.00  0.00    +0.000 HD
ATOM      9  H   UNL     1      52.268 156.609  26.239  0.00  0.00    +0.000 HD
BRANCH   7  10
ATOM     10  C   UNL     1      52.877 154.781  25.392  0.00  0.00    +0.000 A 
ATOM     11  C   UNL     1      52.516 153.525  24.901  0.00  0.00    +0.000 A 
ATOM     12  C   UNL     1      54.040 155.385  24.873  0.00  0.00    +0.000 A 
ATOM     13  C   UNL     1      53.330 152.862  23.971  0.00  0.00    +0.000 A 
ATOM     14  C   UNL     1      54.857 154.723  23.956  0.00  0.00    +0.000 A 
ATOM     15  C   UNL     1      54.510 153.451  23.518  0.00  0.00    +0.000 A 
ATOM     16  H   UNL     1      51.616 153.025  25.244  0.00  0.00    +0.000 HD
ATOM     17  H   UNL     1      54.331 156.380  25.206  0.00  0.00    +0.000 HD
ATOM     18  H   UNL     1      53.050 151.875  23.616  0.00  0.00    +0.000 HD
ATOM     19  H   UNL     1      55.766 155.196  23.597  0.00  0.00    +0.000 HD
ATOM     20  H   UNL     1      55.159 152.917  22.829  0.00  0.00    +0.000 HD
ENDBRANCH   7  10
ENDBRANCH   1   7
BRANCH   1  21
ATOM     21  N   UNL     1      51.646 154.314  28.690  0.00  0.00    +0.000 NA
BRANCH  21  22
ATOM     22  C   UNL     1      52.052 152.953  28.326  0.00  0.00    +0.000 C 
ATOM     23  H   UNL     1      51.188 152.344  28.043  0.00  0.00    +0.000 HD
ATOM     24  H   UNL     1      52.699 152.961  27.440  0.00  0.00    +0.000 HD
ATOM     25  H   UNL     1      52.587 152.443  29.134  0.00  0.00    +0.000 HD
ENDBRANCH  21  22
BRANCH  21  26
ATOM     26  C   UNL     1      50.185 154.461  28.527  0.00  0.00    +0.000 C 
ATOM     27  H   UNL     1      49.967 154.816  27.510  0.00  0.00    +0.000 HD
ATOM     28  H   UNL     1      49.696 153.483  28.586  0.00  0.00    +0.000 HD
BRANCH  26  29
ATOM     29  C   UNL     1      49.563 155.384  29.499  0.00  0.00    +0.000 C 
ATOM     30  C   UNL     1      49.050 156.143  30.278  0.00  0.00    +0.000 C 
ATOM     31  H   UNL     1      48.603 156.834  30.951  0.00  0.00    +0.000 HD
ENDBRANCH  26  29
ENDBRANCH  21  26
ENDBRANCH   1  21
TORSDOF 7
ENDMDL
MODEL 5
REMARK VINA RESULT:    -3.997      1.387      5.273
REMARK INTER + INTRA:          -5.997
REMARK INTER:                  -6.073
REMARK INTRA:                   0.076
REMARK UNBOUND:                -0.598
REMARK  Name = 26757
REMARK  7 active torsions:
REMARK  status: ('A' for Active; 'I' for Inactive)
REMARK    1  A    between atoms: N_1  and  C_2
REMARK    2  A    between atoms: N_1  and  C_6
REMARK    3  A    between atoms: N_1  and  C_7
REMARK    4  A    between atoms: C_2  and  C_3
REMARK    5  A    between atoms: C_2  and  C_4
REMARK    6  A    between atoms: C_3  and  C_5
REMARK    7  A    between atoms: C_6  and  C_13
REMARK                            x       y       z     vdW  Elec       q    Type
REMARK                         _______ _______ _______ _____ _____    ______ ____
ROOT
ATOM      1  C   UNL     1      52.587 153.235  26.656  0.00  0.00    +0.000 C 
ATOM      2  H   UNL     1      53.413 153.785  27.129  0.00  0.00    +0.000 HD
ENDROOT
BRANCH   1   3
ATOM      3  C   UNL     1      53.113 151.791  26.554  0.00  0.00    +0.000 C 
ATOM      4  H   UNL     1      52.382 151.076  26.945  0.00  0.00    +0.000 HD
ATOM      5  H   UNL     1      53.277 151.512  25.506  0.00  0.00    +0.000 HD
ATOM      6  H   UNL     1      54.051 151.647  27.095  0.00  0.00    +0.000 HD
ENDBRANCH   1   3
BRANCH   1   7
ATOM      7  C   UNL     1      51.416 153.301  27.689  0.00  0.00    +0.000 C 
ATOM      8  H   UNL     1      50.490 153.038  27.162  0.00  0.00    +0.000 HD
ATOM      9  H   UNL     1      51.581 152.486  28.410  0.00  0.00    +0.000 HD
BRANCH   7  10
ATOM     10  C   UNL     1      51.116 154.536  28.519  0.00  0.00    +0.000 A 
ATOM     11  C   UNL     1      49.967 154.727  29.288  0.00  0.00    +0.000 A 
ATOM     12  C   UNL     1      52.064 155.578  28.478  0.00  0.00    +0.000 A 
ATOM     13  C   UNL     1      49.739 155.947  29.940  0.00  0.00    +0.000 A 
ATOM     14  C   UNL     1      51.836 156.797  29.118  0.00  0.00    +0.000 A 
ATOM     15  C   UNL     1      50.661 156.987  29.836  0.00  0.00    +0.000 A 
ATOM     16  H   UNL     1      49.216 153.948  29.378  0.00  0.00    +0.000 HD
ATOM     17  H   UNL     1      52.989 155.450  27.918  0.00  0.00    +0.000 HD
ATOM     18  H   UNL     1      48.829 156.089  30.516  0.00  0.00    +0.000 HD
ATOM     19  H   UNL     1      52.567 157.596  29.043  0.00  0.00    +0.000 HD
ATOM     20  H   UNL     1      50.462 157.945  30.308  0.00  0.00    +0.000 HD
ENDBRANCH   7  10
ENDBRANCH   1   7
BRANCH   1  21
ATOM     21  N   UNL     1      52.317 153.870  25.338  0.00  0.00    +0.000 NA
BRANCH  21  22
ATOM     22  C   UNL     1      53.064 153.260  24.234  0.00  0.00    +0.000 C 
ATOM     23  H   UNL     1      54.143 153.375  24.373  0.00  0.00    +0.000 HD
ATOM     24  H   UNL     1      52.894 152.176  24.197  0.00  0.00    +0.000 HD
ATOM     25  H   UNL     1      52.792 153.680  23.259  0.00  0.00    +0.000 HD
ENDBRANCH  21  22
BRANCH  21  26
ATOM     26  C   UNL     1      52.525 155.332  25.335  0.00  0.00    +0.000 C 
ATOM     27  H   UNL     1      51.681 155.818  24.826  0.00  0.00    +0.000 HD
ATOM     28  H   UNL     1      52.489 155.722  26.358  0.00  0.00    +0.000 HD
BRANCH  26  29
ATOM     29  C   UNL     1      53.783 155.759  24.688  0.00  0.00    +0.000 C 
ATOM     30  C   UNL     1      54.804 156.121  24.166  0.00  0.00    +0.000 C 
ATOM     31  H   UNL     1      55.693 156.462  23.694  0.00  0.00    +0.000 HD
ENDBRANCH  26  29
ENDBRANCH  21  26
ENDBRANCH   1  21
TORSDOF 7
ENDMDL
MODEL 6
REMARK VINA RESULT:    -3.706      0.857      3.005
REMARK INTER + INTRA:          -5.605
REMARK INTER:                  -5.656
REMARK INTRA:                   0.051
REMARK UNBOUND:                -0.598
REMARK  Name = 26757
REMARK  7 active torsions:
REMARK  status: ('A' for Active; 'I' for Inactive)
REMARK    1  A    between atoms: N_1  and  C_2
REMARK    2  A    between atoms: N_1  and  C_6
REMARK    3  A    between atoms: N_1  and  C_7
REMARK    4  A    between atoms: C_2  and  C_3
REMARK    5  A    between atoms: C_2  and  C_4
REMARK    6  A    between atoms: C_3  and  C_5
REMARK    7  A    between atoms: C_6  and  C_13
REMARK                            x       y       z     vdW  Elec       q    Type
REMARK                         _______ _______ _______ _____ _____    ______ ____
ROOT
ATOM      1  C   UNL     1      51.402 152.923  27.348  0.00  0.00    +0.000 C 
ATOM      2  H   UNL     1      50.503 152.289  27.333  0.00  0.00    +0.000 HD
ENDROOT
BRANCH   1   3
ATOM      3  C   UNL     1      52.566 151.914  27.343  0.00  0.00    +0.000 C 
ATOM      4  H   UNL     1      52.642 151.404  26.377  0.00  0.00    +0.000 HD
ATOM      5  H   UNL     1      53.523 152.429  27.489  0.00  0.00    +0.000 HD
ATOM      6  H   UNL     1      52.467 151.154  28.122  0.00  0.00    +0.000 HD
ENDBRANCH   1   3
BRANCH   1   7
ATOM      7  C   UNL     1      51.369 153.701  25.993  0.00  0.00    +0.000 C 
ATOM      8  H   UNL     1      50.874 153.060  25.252  0.00  0.00    +0.000 HD
ATOM      9  H   UNL     1      50.693 154.557  26.133  0.00  0.00    +0.000 HD
BRANCH   7  10
ATOM     10  C   UNL     1      52.616 154.258  25.331  0.00  0.00    +0.000 A 
ATOM     11  C   UNL     1      53.018 155.594  25.370  0.00  0.00    +0.000 A 
ATOM     12  C   UNL     1      53.407 153.351  24.596  0.00  0.00    +0.000 A 
ATOM     13  C   UNL     1      54.135 156.025  24.642  0.00  0.00    +0.000 A 
ATOM     14  C   UNL     1      54.514 153.779  23.862  0.00  0.00    +0.000 A 
ATOM     15  C   UNL     1      54.867 155.123  23.871  0.00  0.00    +0.000 A 
ATOM     16  H   UNL     1      52.462 156.331  25.942  0.00  0.00    +0.000 HD
ATOM     17  H   UNL     1      53.145 152.295  24.574  0.00  0.00    +0.000 HD
ATOM     18  H   UNL     1      54.422 157.072  24.663  0.00  0.00    +0.000 HD
ATOM     19  H   UNL     1      55.087 153.066  23.277  0.00  0.00    +0.000 HD
ATOM     20  H   UNL     1      55.708 155.468  23.276  0.00  0.00    +0.000 HD
ENDBRANCH   7  10
ENDBRANCH   1   7
BRANCH   1  21
ATOM     21  N   UNL     1      51.341 153.763  28.574  0.00  0.00    +0.000 NA
BRANCH  21  22
ATOM     22  C   UNL     1      50.083 154.500  28.714  0.00  0.00    +0.000 C 
ATOM     23  H   UNL     1      50.016 154.989  29.691  0.00  0.00    +0.000 HD
ATOM     24  H   UNL     1      50.022 155.315  27.982  0.00  0.00    +0.000 HD
ATOM     25  H   UNL     1      49.203 153.861  28.584  0.00  0.00    +0.000 HD
ENDBRANCH  21  22
BRANCH  21  26
ATOM     26  C   UNL     1      52.483 154.690  28.709  0.00  0.00    +0.000 C 
ATOM     27  H   UNL     1      53.057 154.430  29.610  0.00  0.00    +0.000 HD
ATOM     28  H   UNL     1      53.188 154.546  27.884  0.00  0.00    +0.000 HD
BRANCH  26  29
ATOM     29  C   UNL     1      52.095 156.114  28.783  0.00  0.00    +0.000 C 
ATOM     30  C   UNL     1      51.768 157.269  28.855  0.00  0.00    +0.000 C 
ATOM     31  H   UNL     1      51.455 158.282  28.921  0.00  0.00    +0.000 HD
ENDBRANCH  26  29
ENDBRANCH  21  26
ENDBRANCH   1  21
TORSDOF 7
ENDMDL
MODEL 7
REMARK VINA RESULT:    -3.513     16.772     18.374
REMARK INTER + INTRA:          -5.343
REMARK INTER:                  -4.683
REMARK INTRA:                  -0.660
REMARK UNBOUND:                -0.598
REMARK  Name = 26757
REMARK  7 active torsions:
REMARK  status: ('A' for Active; 'I' for Inactive)
REMARK    1  A    between atoms: N_1  and  C_2
REMARK    2  A    between atoms: N_1  and  C_6
REMARK    3  A    between atoms: N_1  and  C_7
REMARK    4  A    between atoms: C_2  and  C_3
REMARK    5  A    between atoms: C_2  and  C_4
REMARK    6  A    between atoms: C_3  and  C_5
REMARK    7  A    between atoms: C_6  and  C_13
REMARK                            x       y       z     vdW  Elec       q    Type
REMARK                         _______ _______ _______ _____ _____    ______ ____
ROOT
ATOM      1  C   UNL     1      54.274 166.376  40.701  0.00  0.00    +0.000 C 
ATOM      2  H   UNL     1      54.188 166.102  41.762  0.00  0.00    +0.000 HD
ENDROOT
BRANCH   1   3
ATOM      3  C   UNL     1      55.786 166.295  40.418  0.00  0.00    +0.000 C 
ATOM      4  H   UNL     1      56.367 166.447  41.334  0.00  0.00    +0.000 HD
ATOM      5  H   UNL     1      56.057 165.299  40.049  0.00  0.00    +0.000 HD
ATOM      6  H   UNL     1      56.115 167.032  39.681  0.00  0.00    +0.000 HD
ENDBRANCH   1   3
BRANCH   1   7
ATOM      7  C   UNL     1      53.529 165.239  39.930  0.00  0.00    +0.000 C 
ATOM      8  H   UNL     1      52.732 165.704  39.336  0.00  0.00    +0.000 HD
ATOM      9  H   UNL     1      54.240 164.834  39.194  0.00  0.00    +0.000 HD
BRANCH   7  10
ATOM     10  C   UNL     1      52.917 164.035  40.623  0.00  0.00    +0.000 A 
ATOM     11  C   UNL     1      53.597 163.173  41.485  0.00  0.00    +0.000 A 
ATOM     12  C   UNL     1      51.562 163.760  40.346  0.00  0.00    +0.000 A 
ATOM     13  C   UNL     1      52.964 162.032  41.998  0.00  0.00    +0.000 A 
ATOM     14  C   UNL     1      50.933 162.620  40.847  0.00  0.00    +0.000 A 
ATOM     15  C   UNL     1      51.642 161.744  41.661  0.00  0.00    +0.000 A 
ATOM     16  H   UNL     1      54.633 163.351  41.756  0.00  0.00    +0.000 HD
ATOM     17  H   UNL     1      50.991 164.432  39.708  0.00  0.00    +0.000 HD
ATOM     18  H   UNL     1      53.513 161.357  42.648  0.00  0.00    +0.000 HD
ATOM     19  H   UNL     1      49.899 162.412  40.591  0.00  0.00    +0.000 HD
ATOM     20  H   UNL     1      51.169 160.838  42.027  0.00  0.00    +0.000 HD
ENDBRANCH   7  10
ENDBRANCH   1   7
BRANCH   1  21
ATOM     21  N   UNL     1      53.706 167.741  40.539  0.00  0.00    +0.000 NA
BRANCH  21  22
ATOM     22  C   UNL     1      54.720 168.769  40.287  0.00  0.00    +0.000 C 
ATOM     23  H   UNL     1      55.110 168.699  39.267  0.00  0.00    +0.000 HD
ATOM     24  H   UNL     1      54.286 169.774  40.358  0.00  0.00    +0.000 HD
ATOM     25  H   UNL     1      55.561 168.711  40.986  0.00  0.00    +0.000 HD
ENDBRANCH  21  22
BRANCH  21  26
ATOM     26  C   UNL     1      52.841 168.156  41.663  0.00  0.00    +0.000 C 
ATOM     27  H   UNL     1      53.315 167.866  42.611  0.00  0.00    +0.000 HD
ATOM     28  H   UNL     1      52.779 169.248  41.710  0.00  0.00    +0.000 HD
BRANCH  26  29
ATOM     29  C   UNL     1      51.479 167.585  41.615  0.00  0.00    +0.000 C 
ATOM     30  C   UNL     1      50.369 167.124  41.590  0.00  0.00    +0.000 C 
ATOM     31  H   UNL     1      49.392 166.705  41.592  0.00  0.00    +0.000 HD
ENDBRANCH  26  29
ENDBRANCH  21  26
ENDBRANCH   1  21
TORSDOF 7
ENDMDL
MODEL 8
REMARK VINA RESULT:    -3.457     16.736     18.309
REMARK INTER + INTRA:          -5.268
REMARK INTER:                  -4.737
REMARK INTRA:                  -0.531
REMARK UNBOUND:                -0.598
REMARK  Name = 26757
REMARK  7 active torsions:
REMARK  status: ('A' for Active; 'I' for Inactive)
REMARK    1  A    between atoms: N_1  and  C_2
REMARK    2  A    between atoms: N_1  and  C_6
REMARK    3  A    between atoms: N_1  and  C_7
REMARK    4  A    between atoms: C_2  and  C_3
REMARK    5  A    between atoms: C_2  and  C_4
REMARK    6  A    between atoms: C_3  and  C_5
REMARK    7  A    between atoms: C_6  and  C_13
REMARK                            x       y       z     vdW  Elec       q    Type
REMARK                         _______ _______ _______ _____ _____    ______ ____
ROOT
ATOM      1  C   UNL     1      52.768 166.570  40.149  0.00  0.00    +0.000 C 
ATOM      2  H   UNL     1      53.189 167.192  39.345  0.00  0.00    +0.000 HD
ENDROOT
BRANCH   1   3
ATOM      3  C   UNL     1      51.280 166.969  40.183  0.00  0.00    +0.000 C 
ATOM      4  H   UNL     1      50.826 166.716  41.147  0.00  0.00    +0.000 HD
ATOM      5  H   UNL     1      51.168 168.054  40.072  0.00  0.00    +0.000 HD
ATOM      6  H   UNL     1      50.698 166.485  39.396  0.00  0.00    +0.000 HD
ENDBRANCH   1   3
BRANCH   1   7
ATOM      7  C   UNL     1      52.910 165.100  39.637  0.00  0.00    +0.000 C 
ATOM      8  H   UNL     1      52.290 164.999  38.737  0.00  0.00    +0.000 HD
ATOM      9  H   UNL     1      53.947 164.982  39.290  0.00  0.00    +0.000 HD
BRANCH   7  10
ATOM     10  C   UNL     1      52.623 163.891  40.508  0.00  0.00    +0.000 A 
ATOM     11  C   UNL     1      53.554 163.254  41.330  0.00  0.00    +0.000 A 
ATOM     12  C   UNL     1      51.318 163.361  40.454  0.00  0.00    +0.000 A 
ATOM     13  C   UNL     1      53.212 162.083  42.021  0.00  0.00    +0.000 A 
ATOM     14  C   UNL     1      50.978 162.190  41.132  0.00  0.00    +0.000 A 
ATOM     15  C   UNL     1      51.934 161.540  41.903  0.00  0.00    +0.000 A 
ATOM     16  H   UNL     1      54.566 163.634  41.432  0.00  0.00    +0.000 HD
ATOM     17  H   UNL     1      50.556 163.854  39.852  0.00  0.00    +0.000 HD
ATOM     18  H   UNL     1      53.954 161.584  42.638  0.00  0.00    +0.000 HD
ATOM     19  H   UNL     1      49.975 161.784  41.046  0.00  0.00    +0.000 HD
ATOM     20  H   UNL     1      51.685 160.610  42.408  0.00  0.00    +0.000 HD
ENDBRANCH   7  10
ENDBRANCH   1   7
BRANCH   1  21
ATOM     21  N   UNL     1      53.504 166.890  41.401  0.00  0.00    +0.000 NA
BRANCH  21  22
ATOM     22  C   UNL     1      53.067 168.138  42.032  0.00  0.00    +0.000 C 
ATOM     23  H   UNL     1      52.000 168.109  42.273  0.00  0.00    +0.000 HD
ATOM     24  H   UNL     1      53.573 168.290  42.993  0.00  0.00    +0.000 HD
ATOM     25  H   UNL     1      53.258 169.016  41.405  0.00  0.00    +0.000 HD
ENDBRANCH  21  22
BRANCH  21  26
ATOM     26  C   UNL     1      54.972 166.899  41.235  0.00  0.00    +0.000 C 
ATOM     27  H   UNL     1      55.448 166.934  42.224  0.00  0.00    +0.000 HD
ATOM     28  H   UNL     1      55.310 165.952  40.801  0.00  0.00    +0.000 HD
BRANCH  26  29
ATOM     29  C   UNL     1      55.476 168.023  40.420  0.00  0.00    +0.000 C 
ATOM     30  C   UNL     1      55.902 168.936  39.762  0.00  0.00    +0.000 C 
ATOM     31  H   UNL     1      56.291 169.750  39.202  0.00  0.00    +0.000 HD
ENDBRANCH  26  29
ENDBRANCH  21  26
ENDBRANCH   1  21
TORSDOF 7
ENDMDL
MODEL 9
REMARK VINA RESULT:    -3.203     16.553     18.519
REMARK INTER + INTRA:          -4.925
REMARK INTER:                  -4.356
REMARK INTRA:                  -0.569
REMARK UNBOUND:                -0.598
REMARK  Name = 26757
REMARK  7 active torsions:
REMARK  status: ('A' for Active; 'I' for Inactive)
REMARK    1  A    between atoms: N_1  and  C_2
REMARK    2  A    between atoms: N_1  and  C_6
REMARK    3  A    between atoms: N_1  and  C_7
REMARK    4  A    between atoms: C_2  and  C_3
REMARK    5  A    between atoms: C_2  and  C_4
REMARK    6  A    between atoms: C_3  and  C_5
REMARK    7  A    between atoms: C_6  and  C_13
REMARK                            x       y       z     vdW  Elec       q    Type
REMARK                         _______ _______ _______ _____ _____    ______ ____
ROOT
ATOM      1  C   UNL     1      52.029 164.276  40.761  0.00  0.00    +0.000 C 
ATOM      2  H   UNL     1      51.183 163.711  40.343  0.00  0.00    +0.000 HD
ENDROOT
BRANCH   1   3
ATOM      3  C   UNL     1      52.880 164.634  39.528  0.00  0.00    +0.000 C 
ATOM      4  H   UNL     1      53.297 163.735  39.062  0.00  0.00    +0.000 HD
ATOM      5  H   UNL     1      52.264 165.115  38.760  0.00  0.00    +0.000 HD
ATOM      6  H   UNL     1      53.707 165.306  39.770  0.00  0.00    +0.000 HD
ENDBRANCH   1   3
BRANCH   1   7
ATOM      7  C   UNL     1      51.392 165.572  41.359  0.00  0.00    +0.000 C 
ATOM      8  H   UNL     1      50.390 165.683  40.924  0.00  0.00    +0.000 HD
ATOM      9  H   UNL     1      51.223 165.380  42.429  0.00  0.00    +0.000 HD
BRANCH   7  10
ATOM     10  C   UNL     1      52.059 166.932  41.280  0.00  0.00    +0.000 A 
ATOM     11  C   UNL     1      51.721 167.942  40.378  0.00  0.00    +0.000 A 
ATOM     12  C   UNL     1      53.123 167.174  42.173  0.00  0.00    +0.000 A 
ATOM     13  C   UNL     1      52.466 169.128  40.321  0.00  0.00    +0.000 A 
ATOM     14  C   UNL     1      53.873 168.349  42.113  0.00  0.00    +0.000 A 
ATOM     15  C   UNL     1      53.554 169.321  41.171  0.00  0.00    +0.000 A 
ATOM     16  H   UNL     1      50.893 167.822  39.686  0.00  0.00    +0.000 HD
ATOM     17  H   UNL     1      53.391 166.424  42.915  0.00  0.00    +0.000 HD
ATOM     18  H   UNL     1      52.205 169.895  39.598  0.00  0.00    +0.000 HD
ATOM     19  H   UNL     1      54.709 168.496  42.789  0.00  0.00    +0.000 HD
ATOM     20  H   UNL     1      54.153 170.224  41.097  0.00  0.00    +0.000 HD
ENDBRANCH   7  10
ENDBRANCH   1   7
BRANCH   1  21
ATOM     21  N   UNL     1      52.726 163.393  41.735  0.00  0.00    +0.000 NA
BRANCH  21  22
ATOM     22  C   UNL     1      54.184 163.404  41.593  0.00  0.00    +0.000 C 
ATOM     23  H   UNL     1      54.639 162.551  42.105  0.00  0.00    +0.000 HD
ATOM     24  H   UNL     1      54.476 163.296  40.540  0.00  0.00    +0.000 HD
ATOM     25  H   UNL     1      54.637 164.324  41.978  0.00  0.00    +0.000 HD
ENDBRANCH  21  22
BRANCH  21  26
ATOM     26  C   UNL     1      52.232 162.001  41.724  0.00  0.00    +0.000 C 
ATOM     27  H   UNL     1      52.628 161.482  40.841  0.00  0.00    +0.000 HD
ATOM     28  H   UNL     1      52.643 161.447  42.575  0.00  0.00    +0.000 HD
BRANCH  26  29
ATOM     29  C   UNL     1      50.758 161.886  41.727  0.00  0.00    +0.000 C 
ATOM     30  C   UNL     1      49.560 161.784  41.716  0.00  0.00    +0.000 C 
ATOM     31  H   UNL     1      48.502 161.695  41.680  0.00  0.00    +0.000 HD
ENDBRANCH  26  29
ENDBRANCH  21  26
ENDBRANCH   1  21
TORSDOF 7
ENDMDL
MODEL 10
REMARK VINA RESULT:    -2.882     16.482     18.328
REMARK INTER + INTRA:          -4.491
REMARK INTER:                  -3.893
REMARK INTRA:                  -0.598
REMARK UNBOUND:                -0.598
REMARK  Name = 26757
REMARK  7 active torsions:
REMARK  status: ('A' for Active; 'I' for Inactive)
REMARK    1  A    between atoms: N_1  and  C_2
REMARK    2  A    between atoms: N_1  and  C_6
REMARK    3  A    between atoms: N_1  and  C_7
REMARK    4  A    between atoms: C_2  and  C_3
REMARK    5  A    between atoms: C_2  and  C_4
REMARK    6  A    between atoms: C_3  and  C_5
REMARK    7  A    between atoms: C_6  and  C_13
REMARK                            x       y       z     vdW  Elec       q    Type
REMARK                         _______ _______ _______ _____ _____    ______ ____
ROOT
ATOM      1  C   UNL     1      52.533 164.733  40.499  0.00  0.00    +0.000 C 
ATOM      2  H   UNL     1      52.731 165.211  39.528  0.00  0.00    +0.000 HD
ENDROOT
BRANCH   1   3
ATOM      3  C   UNL     1      51.779 163.442  40.129  0.00  0.00    +0.000 C 
ATOM      4  H   UNL     1      51.799 162.722  40.954  0.00  0.00    +0.000 HD
ATOM      5  H   UNL     1      50.720 163.654  39.940  0.00  0.00    +0.000 HD
ATOM      6  H   UNL     1      52.191 162.954  39.242  0.00  0.00    +0.000 HD
ENDBRANCH   1   3
BRANCH   1   7
ATOM      7  C   UNL     1      53.945 164.376  41.067  0.00  0.00    +0.000 C 
ATOM      8  H   UNL     1      53.868 164.349  42.161  0.00  0.00    +0.000 HD
ATOM      9  H   UNL     1      54.158 163.340  40.765  0.00  0.00    +0.000 HD
BRANCH   7  10
ATOM     10  C   UNL     1      55.194 165.172  40.734  0.00  0.00    +0.000 A 
ATOM     11  C   UNL     1      55.217 166.527  40.397  0.00  0.00    +0.000 A 
ATOM     12  C   UNL     1      56.418 164.473  40.739  0.00  0.00    +0.000 A 
ATOM     13  C   UNL     1      56.413 167.146  40.010  0.00  0.00    +0.000 A 
ATOM     14  C   UNL     1      57.608 165.083  40.345  0.00  0.00    +0.000 A 
ATOM     15  C   UNL     1      57.602 166.419  39.962  0.00  0.00    +0.000 A 
ATOM     16  H   UNL     1      54.308 167.122  40.403  0.00  0.00    +0.000 HD
ATOM     17  H   UNL     1      56.443 163.424  41.033  0.00  0.00    +0.000 HD
ATOM     18  H   UNL     1      56.411 168.195  39.728  0.00  0.00    +0.000 HD
ATOM     19  H   UNL     1      58.532 164.513  40.326  0.00  0.00    +0.000 HD
ATOM     20  H   UNL     1      58.519 166.892  39.623  0.00  0.00    +0.000 HD
ENDBRANCH   7  10
ENDBRANCH   1   7
BRANCH   1  21
ATOM     21  N   UNL     1      51.732 165.682  41.316  0.00  0.00    +0.000 NA
BRANCH  21  22
ATOM     22  C   UNL     1      50.761 165.022  42.193  0.00  0.00    +0.000 C 
ATOM     23  H   UNL     1      49.961 164.550  41.614  0.00  0.00    +0.000 HD
ATOM     24  H   UNL     1      51.231 164.203  42.752  0.00  0.00    +0.000 HD
ATOM     25  H   UNL     1      50.309 165.711  42.914  0.00  0.00    +0.000 HD
ENDBRANCH  21  22
BRANCH  21  26
ATOM     26  C   UNL     1      51.057 166.724  40.514  0.00  0.00    +0.000 C 
ATOM     27  H   UNL     1      50.859 166.334  39.506  0.00  0.00    +0.000 HD
ATOM     28  H   UNL     1      50.065 166.935  40.926  0.00  0.00    +0.000 HD
BRANCH  26  29
ATOM     29  C   UNL     1      51.822 167.983  40.400  0.00  0.00    +0.000 C 
ATOM     30  C   UNL     1      52.455 169.002  40.317  0.00  0.00    +0.000 C 
ATOM     31  H   UNL     1      53.017 169.903  40.270  0.00  0.00    +0.000 HD
ENDBRANCH  26  29
ENDBRANCH  21  26
ENDBRANCH   1  21
TORSDOF 7
ENDMDL
