MODEL 1
REMARK VINA RESULT:    -6.779      0.000      0.000
REMARK INTER + INTRA:          -7.270
REMARK INTER:                  -7.531
REMARK INTRA:                   0.261
REMARK UNBOUND:                -0.095
REMARK  Name = 10281
REMARK  4 active torsions:
REMARK  status: ('A' for Active; 'I' for Inactive)
REMARK    1  A    between atoms: C_3  and  C_4
REMARK    2  A    between atoms: C_3  and  C_5
REMARK    3  A    between atoms: C_3  and  C_6
REMARK    4  A    between atoms: C_9  and  C_12
REMARK                            x       y       z     vdW  Elec       q    Type
REMARK                         _______ _______ _______ _____ _____    ______ ____
ROOT
ATOM      1  O   UNL     1      51.900 152.650  25.589  0.00  0.00    +0.000 OA
ATOM      2  O   UNL     1      52.302 156.886  28.789  0.00  0.00    +0.000 OA
ATOM      3  C   UNL     1      52.785 154.830  25.916  0.00  0.00    +0.000 C 
ATOM      4  C   UNL     1      52.001 153.633  26.316  0.00  0.00    +0.000 C 
ATOM      5  C   UNL     1      52.866 155.879  26.742  0.00  0.00    +0.000 C 
ATOM      6  C   UNL     1      51.419 154.705  28.463  0.00  0.00    +0.000 C 
ATOM      7  C   UNL     1      52.201 155.902  28.062  0.00  0.00    +0.000 C 
ATOM      8  C   UNL     1      51.336 153.656  27.636  0.00  0.00    +0.000 C 
ATOM      9  C   UNL     1      50.748 154.738  29.801  0.00  0.00    +0.000 C 
ENDROOT
BRANCH   3  10
ATOM     10  C   UNL     1      53.456 154.796  24.578  0.00  0.00    +0.000 C 
ATOM     11  C   UNL     1      54.164 156.120  24.306  0.00  0.00    +0.000 C 
ATOM     12  C   UNL     1      54.435 153.629  24.492  0.00  0.00    +0.000 C 
ENDBRANCH   3  10
TORSDOF 1
ENDMDL
MODEL 2
REMARK VINA RESULT:    -6.752      1.720      4.070
REMARK INTER + INTRA:          -7.241
REMARK INTER:                  -7.521
REMARK INTRA:                   0.279
REMARK UNBOUND:                -0.095
REMARK  Name = 10281
REMARK  4 active torsions:
REMARK  status: ('A' for Active; 'I' for Inactive)
REMARK    1  A    between atoms: C_3  and  C_4
REMARK    2  A    between atoms: C_3  and  C_5
REMARK    3  A    between atoms: C_3  and  C_6
REMARK    4  A    between atoms: C_9  and  C_12
REMARK                            x       y       z     vdW  Elec       q    Type
REMARK                         _______ _______ _______ _____ _____    ______ ____
ROOT
ATOM      1  O   UNL     1      51.832 152.782  28.437  0.00  0.00    +0.000 OA
ATOM      2  O   UNL     1      53.602 155.940  24.533  0.00  0.00    +0.000 OA
ATOM      3  C   UNL     1      52.267 154.998  27.703  0.00  0.00    +0.000 C 
ATOM      4  C   UNL     1      52.237 153.521  27.546  0.00  0.00    +0.000 C 
ATOM      5  C   UNL     1      52.718 155.764  26.704  0.00  0.00    +0.000 C 
ATOM      6  C   UNL     1      53.165 153.723  25.266  0.00  0.00    +0.000 C 
ATOM      7  C   UNL     1      53.196 155.199  25.424  0.00  0.00    +0.000 C 
ATOM      8  C   UNL     1      52.714 152.956  26.266  0.00  0.00    +0.000 C 
ATOM      9  C   UNL     1      53.650 153.160  23.967  0.00  0.00    +0.000 C 
ENDROOT
BRANCH   3  10
ATOM     10  C   UNL     1      51.781 155.561  29.002  0.00  0.00    +0.000 C 
ATOM     11  C   UNL     1      51.912 157.081  29.004  0.00  0.00    +0.000 C 
ATOM     12  C   UNL     1      50.338 155.140  29.269  0.00  0.00    +0.000 C 
ENDBRANCH   3  10
TORSDOF 1
ENDMDL
MODEL 3
REMARK VINA RESULT:    -5.668      0.675      4.808
REMARK INTER + INTRA:          -6.094
REMARK INTER:                  -6.036
REMARK INTRA:                  -0.058
REMARK UNBOUND:                -0.095
REMARK  Name = 10281
REMARK  4 active torsions:
REMARK  status: ('A' for Active; 'I' for Inactive)
REMARK    1  A    between atoms: C_3  and  C_4
REMARK    2  A    between atoms: C_3  and  C_5
REMARK    3  A    between atoms: C_3  and  C_6
REMARK    4  A    between atoms: C_9  and  C_12
REMARK                            x       y       z     vdW  Elec       q    Type
REMARK                         _______ _______ _______ _____ _____    ______ ____
ROOT
ATOM      1  O   UNL     1      52.370 157.041  28.602  0.00  0.00    +0.000 OA
ATOM      2  O   UNL     1      51.858 152.500  25.871  0.00  0.00    +0.000 OA
ATOM      3  C   UNL     1      51.427 154.863  28.506  0.00  0.00    +0.000 C 
ATOM      4  C   UNL     1      52.244 155.989  27.984  0.00  0.00    +0.000 C 
ATOM      5  C   UNL     1      51.318 153.735  27.796  0.00  0.00    +0.000 C 
ATOM      6  C   UNL     1      52.803 154.677  25.968  0.00  0.00    +0.000 C 
ATOM      7  C   UNL     1      51.986 153.552  26.490  0.00  0.00    +0.000 C 
ATOM      8  C   UNL     1      52.912 155.806  26.678  0.00  0.00    +0.000 C 
ATOM      9  C   UNL     1      53.475 154.483  24.645  0.00  0.00    +0.000 C 
ENDROOT
BRANCH   3  10
ATOM     10  C   UNL     1      50.756 155.058  29.830  0.00  0.00    +0.000 C 
ATOM     11  C   UNL     1      49.466 155.856  29.658  0.00  0.00    +0.000 C 
ATOM     12  C   UNL     1      50.478 153.715  30.500  0.00  0.00    +0.000 C 
ENDBRANCH   3  10
TORSDOF 1
ENDMDL
MODEL 4
REMARK VINA RESULT:    -5.405      1.262      4.543
REMARK INTER + INTRA:          -5.816
REMARK INTER:                  -6.239
REMARK INTRA:                   0.423
REMARK UNBOUND:                -0.095
REMARK  Name = 10281
REMARK  4 active torsions:
REMARK  status: ('A' for Active; 'I' for Inactive)
REMARK    1  A    between atoms: C_3  and  C_4
REMARK    2  A    between atoms: C_3  and  C_5
REMARK    3  A    between atoms: C_3  and  C_6
REMARK    4  A    between atoms: C_9  and  C_12
REMARK                            x       y       z     vdW  Elec       q    Type
REMARK                         _______ _______ _______ _____ _____    ______ ____
ROOT
ATOM      1  O   UNL     1      52.287 156.135  28.137  0.00  0.00    +0.000 OA
ATOM      2  O   UNL     1      53.924 153.350  23.905  0.00  0.00    +0.000 OA
ATOM      3  C   UNL     1      52.442 154.013  27.080  0.00  0.00    +0.000 C 
ATOM      4  C   UNL     1      52.659 155.481  27.168  0.00  0.00    +0.000 C 
ATOM      5  C   UNL     1      52.864 153.342  26.003  0.00  0.00    +0.000 C 
ATOM      6  C   UNL     1      53.771 155.471  24.963  0.00  0.00    +0.000 C 
ATOM      7  C   UNL     1      53.553 154.005  24.875  0.00  0.00    +0.000 C 
ATOM      8  C   UNL     1      53.348 156.143  26.040  0.00  0.00    +0.000 C 
ATOM      9  C   UNL     1      54.469 156.133  23.817  0.00  0.00    +0.000 C 
ENDROOT
BRANCH   3  10
ATOM     10  C   UNL     1      51.745 153.352  28.227  0.00  0.00    +0.000 C 
ATOM     11  C   UNL     1      50.437 154.074  28.541  0.00  0.00    +0.000 C 
ATOM     12  C   UNL     1      51.493 151.876  27.931  0.00  0.00    +0.000 C 
ENDBRANCH   3  10
TORSDOF 1
ENDMDL
MODEL 5
REMARK VINA RESULT:    -4.971      1.546      2.553
REMARK INTER + INTRA:          -5.357
REMARK INTER:                  -5.474
REMARK INTRA:                   0.117
REMARK UNBOUND:                -0.095
REMARK  Name = 10281
REMARK  4 active torsions:
REMARK  status: ('A' for Active; 'I' for Inactive)
REMARK    1  A    between atoms: C_3  and  C_4
REMARK    2  A    between atoms: C_3  and  C_5
REMARK    3  A    between atoms: C_3  and  C_6
REMARK    4  A    between atoms: C_9  and  C_12
REMARK                            x       y       z     vdW  Elec       q    Type
REMARK                         _______ _______ _______ _____ _____    ______ ____
ROOT
ATOM      1  O   UNL     1      53.275 156.262  25.620  0.00  0.00    +0.000 OA
ATOM      2  O   UNL     1      51.401 151.898  28.026  0.00  0.00    +0.000 OA
ATOM      3  C   UNL     1      52.945 153.912  25.521  0.00  0.00    +0.000 C 
ATOM      4  C   UNL     1      52.847 155.249  26.163  0.00  0.00    +0.000 C 
ATOM      5  C   UNL     1      52.466 152.834  26.152  0.00  0.00    +0.000 C 
ATOM      6  C   UNL     1      51.728 154.248  28.124  0.00  0.00    +0.000 C 
ATOM      7  C   UNL     1      51.828 152.913  27.483  0.00  0.00    +0.000 C 
ATOM      8  C   UNL     1      52.209 155.327  27.494  0.00  0.00    +0.000 C 
ATOM      9  C   UNL     1      51.080 154.318  29.472  0.00  0.00    +0.000 C 
ENDROOT
BRANCH   3  10
ATOM     10  C   UNL     1      53.592 153.844  24.173  0.00  0.00    +0.000 C 
ATOM     11  C   UNL     1      55.078 154.174  24.280  0.00  0.00    +0.000 C 
ATOM     12  C   UNL     1      53.386 152.470  23.542  0.00  0.00    +0.000 C 
ENDBRANCH   3  10
TORSDOF 1
ENDMDL
MODEL 6
REMARK VINA RESULT:    -4.390      1.237      4.034
REMARK INTER + INTRA:          -4.741
REMARK INTER:                  -4.939
REMARK INTRA:                   0.198
REMARK UNBOUND:                -0.095
REMARK  Name = 10281
REMARK  4 active torsions:
REMARK  status: ('A' for Active; 'I' for Inactive)
REMARK    1  A    between atoms: C_3  and  C_4
REMARK    2  A    between atoms: C_3  and  C_5
REMARK    3  A    between atoms: C_3  and  C_6
REMARK    4  A    between atoms: C_9  and  C_12
REMARK                            x       y       z     vdW  Elec       q    Type
REMARK                         _______ _______ _______ _____ _____    ______ ____
ROOT
ATOM      1  O   UNL     1      51.615 152.254  25.721  0.00  0.00    +0.000 OA
ATOM      2  O   UNL     1      54.036 156.972  26.191  0.00  0.00    +0.000 OA
ATOM      3  C   UNL     1      51.939 154.211  27.026  0.00  0.00    +0.000 C 
ATOM      4  C   UNL     1      52.166 153.343  25.842  0.00  0.00    +0.000 C 
ATOM      5  C   UNL     1      52.564 155.391  27.115  0.00  0.00    +0.000 C 
ATOM      6  C   UNL     1      53.710 155.015  24.884  0.00  0.00    +0.000 C 
ATOM      7  C   UNL     1      53.484 155.882  26.069  0.00  0.00    +0.000 C 
ATOM      8  C   UNL     1      53.087 153.834  24.795  0.00  0.00    +0.000 C 
ATOM      9  C   UNL     1      54.644 155.521  23.829  0.00  0.00    +0.000 C 
ENDROOT
BRANCH   3  10
ATOM     10  C   UNL     1      51.004 153.706  28.080  0.00  0.00    +0.000 C 
ATOM     11  C   UNL     1      51.549 152.422  28.701  0.00  0.00    +0.000 C 
ATOM     12  C   UNL     1      50.767 154.768  29.150  0.00  0.00    +0.000 C 
ENDBRANCH   3  10
TORSDOF 1
ENDMDL
MODEL 7
REMARK VINA RESULT:    -3.604     16.690     17.923
REMARK INTER + INTRA:          -3.909
REMARK INTER:                  -3.794
REMARK INTRA:                  -0.115
REMARK UNBOUND:                -0.095
REMARK  Name = 10281
REMARK  4 active torsions:
REMARK  status: ('A' for Active; 'I' for Inactive)
REMARK    1  A    between atoms: C_3  and  C_4
REMARK    2  A    between atoms: C_3  and  C_5
REMARK    3  A    between atoms: C_3  and  C_6
REMARK    4  A    between atoms: C_9  and  C_12
REMARK                            x       y       z     vdW  Elec       q    Type
REMARK                         _______ _______ _______ _____ _____    ______ ____
ROOT
ATOM      1  O   UNL     1      54.159 165.015  40.874  0.00  0.00    +0.000 OA
ATOM      2  O   UNL     1      49.559 162.672  42.176  0.00  0.00    +0.000 OA
ATOM      3  C   UNL     1      51.855 165.283  41.387  0.00  0.00    +0.000 C 
ATOM      4  C   UNL     1      53.093 164.488  41.174  0.00  0.00    +0.000 C 
ATOM      5  C   UNL     1      50.715 164.665  41.712  0.00  0.00    +0.000 C 
ATOM      6  C   UNL     1      51.863 162.403  41.665  0.00  0.00    +0.000 C 
ATOM      7  C   UNL     1      50.627 163.198  41.876  0.00  0.00    +0.000 C 
ATOM      8  C   UNL     1      53.004 163.022  41.338  0.00  0.00    +0.000 C 
ATOM      9  C   UNL     1      51.764 160.919  41.833  0.00  0.00    +0.000 C 
ENDROOT
BRANCH   3  10
ATOM     10  C   UNL     1      51.956 166.767  41.219  0.00  0.00    +0.000 C 
ATOM     11  C   UNL     1      51.694 167.156  39.767  0.00  0.00    +0.000 C 
ATOM     12  C   UNL     1      50.988 167.485  42.156  0.00  0.00    +0.000 C 
ENDBRANCH   3  10
TORSDOF 1
ENDMDL
MODEL 8
REMARK VINA RESULT:    -3.509     16.551     18.575
REMARK INTER + INTRA:          -3.809
REMARK INTER:                  -3.686
REMARK INTRA:                  -0.122
REMARK UNBOUND:                -0.095
REMARK  Name = 10281
REMARK  4 active torsions:
REMARK  status: ('A' for Active; 'I' for Inactive)
REMARK    1  A    between atoms: C_3  and  C_4
REMARK    2  A    between atoms: C_3  and  C_5
REMARK    3  A    between atoms: C_3  and  C_6
REMARK    4  A    between atoms: C_9  and  C_12
REMARK                            x       y       z     vdW  Elec       q    Type
REMARK                         _______ _______ _______ _____ _____    ______ ____
ROOT
ATOM      1  O   UNL     1      54.568 165.650  40.129  0.00  0.00    +0.000 OA
ATOM      2  O   UNL     1      50.010 167.765  41.890  0.00  0.00    +0.000 OA
ATOM      3  C   UNL     1      52.378 165.264  40.965  0.00  0.00    +0.000 C 
ATOM      4  C   UNL     1      53.512 166.124  40.536  0.00  0.00    +0.000 C 
ATOM      5  C   UNL     1      51.246 165.826  41.403  0.00  0.00    +0.000 C 
ATOM      6  C   UNL     1      52.199 168.150  41.052  0.00  0.00    +0.000 C 
ATOM      7  C   UNL     1      51.066 167.291  41.481  0.00  0.00    +0.000 C 
ATOM      8  C   UNL     1      53.332 167.589  40.614  0.00  0.00    +0.000 C 
ATOM      9  C   UNL     1      52.008 169.633  41.135  0.00  0.00    +0.000 C 
ENDROOT
BRANCH   3  10
ATOM     10  C   UNL     1      52.570 163.782  40.881  0.00  0.00    +0.000 C 
ATOM     11  C   UNL     1      53.136 163.245  42.192  0.00  0.00    +0.000 C 
ATOM     12  C   UNL     1      51.259 163.084  40.529  0.00  0.00    +0.000 C 
ENDBRANCH   3  10
TORSDOF 1
ENDMDL
MODEL 9
REMARK VINA RESULT:    -3.404     16.724     17.429
REMARK INTER + INTRA:          -3.697
REMARK INTER:                  -3.603
REMARK INTRA:                  -0.095
REMARK UNBOUND:                -0.095
REMARK  Name = 10281
REMARK  4 active torsions:
REMARK  status: ('A' for Active; 'I' for Inactive)
REMARK    1  A    between atoms: C_3  and  C_4
REMARK    2  A    between atoms: C_3  and  C_5
REMARK    3  A    between atoms: C_3  and  C_6
REMARK    4  A    between atoms: C_9  and  C_12
REMARK                            x       y       z     vdW  Elec       q    Type
REMARK                         _______ _______ _______ _____ _____    ______ ____
ROOT
ATOM      1  O   UNL     1      52.514 166.361  39.700  0.00  0.00    +0.000 OA
ATOM      2  O   UNL     1      53.059 161.688  42.191  0.00  0.00    +0.000 OA
ATOM      3  C   UNL     1      53.968 164.849  40.814  0.00  0.00    +0.000 C 
ATOM      4  C   UNL     1      52.654 165.287  40.276  0.00  0.00    +0.000 C 
ATOM      5  C   UNL     1      54.072 163.669  41.436  0.00  0.00    +0.000 C 
ATOM      6  C   UNL     1      51.605 163.199  41.075  0.00  0.00    +0.000 C 
ATOM      7  C   UNL     1      52.918 162.762  41.614  0.00  0.00    +0.000 C 
ATOM      8  C   UNL     1      51.501 164.380  40.454  0.00  0.00    +0.000 C 
ATOM      9  C   UNL     1      50.443 162.274  41.260  0.00  0.00    +0.000 C 
ENDROOT
BRANCH   3  10
ATOM     10  C   UNL     1      55.129 165.774  40.628  0.00  0.00    +0.000 C 
ATOM     11  C   UNL     1      55.175 166.802  41.755  0.00  0.00    +0.000 C 
ATOM     12  C   UNL     1      56.438 164.993  40.552  0.00  0.00    +0.000 C 
ENDBRANCH   3  10
TORSDOF 1
ENDMDL
MODEL 10
REMARK VINA RESULT:    -3.392     16.756     18.954
REMARK INTER + INTRA:          -3.685
REMARK INTER:                  -3.558
REMARK INTRA:                  -0.126
REMARK UNBOUND:                -0.095
REMARK  Name = 10281
REMARK  4 active torsions:
REMARK  status: ('A' for Active; 'I' for Inactive)
REMARK    1  A    between atoms: C_3  and  C_4
REMARK    2  A    between atoms: C_3  and  C_5
REMARK    3  A    between atoms: C_3  and  C_6
REMARK    4  A    between atoms: C_9  and  C_12
REMARK                            x       y       z     vdW  Elec       q    Type
REMARK                         _______ _______ _______ _____ _____    ______ ____
ROOT
ATOM      1  O   UNL     1      50.326 165.963  42.187  0.00  0.00    +0.000 OA
ATOM      2  O   UNL     1      54.325 168.756  40.056  0.00  0.00    +0.000 OA
ATOM      3  C   UNL     1      52.466 165.920  41.158  0.00  0.00    +0.000 C 
ATOM      4  C   UNL     1      51.255 166.594  41.693  0.00  0.00    +0.000 C 
ATOM      5  C   UNL     1      53.453 166.650  40.628  0.00  0.00    +0.000 C 
ATOM      6  C   UNL     1      52.186 168.799  41.087  0.00  0.00    +0.000 C 
ATOM      7  C   UNL     1      53.396 168.125  40.551  0.00  0.00    +0.000 C 
ATOM      8  C   UNL     1      51.197 168.069  41.616  0.00  0.00    +0.000 C 
ATOM      9  C   UNL     1      52.137 170.293  41.004  0.00  0.00    +0.000 C 
ENDROOT
BRANCH   3  10
ATOM     10  C   UNL     1      52.515 164.427  41.242  0.00  0.00    +0.000 C 
ATOM     11  C   UNL     1      51.948 163.804  39.969  0.00  0.00    +0.000 C 
ATOM     12  C   UNL     1      53.941 163.944  41.494  0.00  0.00    +0.000 C 
ENDBRANCH   3  10
TORSDOF 1
ENDMDL
