MODEL 1
REMARK VINA RESULT:    -5.542      0.000      0.000
REMARK INTER + INTRA:         -13.024
REMARK INTER:                 -10.299
REMARK INTRA:                  -2.725
REMARK UNBOUND:                -2.622
REMARK  Name = HAL
REMARK  16 active torsions:
REMARK  status: ('A' for Active; 'I' for Inactive)
REMARK    1  A    between atoms: C_1  and  C_7
REMARK    2  A    between atoms: C_7  and  C_8
REMARK    3  A    between atoms: C_8  and  N_9
REMARK    4  A    between atoms: C_10  and  C_12
REMARK    5  A    between atoms: C_12  and  O_13
REMARK    6  A    between atoms: O_13  and  P_14
REMARK    7  A    between atoms: P_14  and  O_16
REMARK    8  A    between atoms: P_14  and  C_17
REMARK    9  A    between atoms: C_17  and  C_18
REMARK   10  A    between atoms: C_17  and  N_25
REMARK   11  A    between atoms: C_18  and  C_19
REMARK   12  A    between atoms: C_26  and  C_28
REMARK   13  A    between atoms: C_28  and  C_29
REMARK   14  A    between atoms: C_29  and  C_30
REMARK   15  A    between atoms: C_30  and  C_31
REMARK   16  A    between atoms: C_31  and  O_32
REMARK                            x       y       z     vdW  Elec       q    Type
REMARK                         _______ _______ _______ _____ _____    ______ ____
ROOT
ATOM      1  C   UNL     1      20.079  -2.245   6.899  0.00  0.00    +0.000 C 
ENDROOT
BRANCH   1   2
ATOM      2  N   UNL     1      20.325  -0.823   6.528  0.00  0.00    +0.000 N 
ATOM      3  C   UNL     1      20.070  -0.279   5.296  0.00  0.00    +0.000 C 
ATOM      4  O   UNL     1      19.583  -0.921   4.373  0.00  0.00    +0.000 OA
ATOM      5  H   UNL     1      20.830  -0.261   7.203  0.00  0.00    +0.000 HD
BRANCH   3   6
ATOM      6  C   UNL     1      20.440   1.187   5.148  0.00  0.00    +0.000 C 
BRANCH   6   7
ATOM      7  C   UNL     1      21.832   1.411   4.562  0.00  0.00    +0.000 C 
BRANCH   7   8
ATOM      8  C   UNL     1      22.785   2.087   5.549  0.00  0.00    +0.000 C 
BRANCH   8   9
ATOM      9  C   UNL     1      23.265   1.125   6.611  0.00  0.00    +0.000 C 
ATOM     10  O   UNL     1      23.426   1.404   7.789  0.00  0.00    +0.000 OA
BRANCH   9  11
ATOM     11  O   UNL     1      23.464  -0.123   6.130  0.00  0.00    +0.000 OA
ATOM     12  H   UNL     1      22.983  -0.816   6.624  0.00  0.00    +0.000 HD
ENDBRANCH   9  11
ENDBRANCH   8   9
ENDBRANCH   7   8
ENDBRANCH   6   7
ENDBRANCH   3   6
ENDBRANCH   1   2
BRANCH   1  13
ATOM     13  P   UNL     1      21.583  -3.279   7.028  0.00  0.00    +0.000 P 
ATOM     14  O   UNL     1      22.855  -4.155   7.137  0.00  0.00    +0.000 OA
BRANCH  13  15
ATOM     15  O   UNL     1      22.143  -2.636   5.614  0.00  0.00    +0.000 OA
ATOM     16  H   UNL     1      22.726  -3.318   5.216  0.00  0.00    +0.000 HD
ENDBRANCH  13  15
BRANCH  13  17
ATOM     17  O   UNL     1      22.268  -2.099   8.003  0.00  0.00    +0.000 OA
BRANCH  17  18
ATOM     18  C   UNL     1      22.992  -2.248   9.205  0.00  0.00    +0.000 C 
BRANCH  18  20
ATOM     19  N   UNL     1      21.238  -1.946  10.971  0.00  0.00    +0.000 N 
ATOM     20  C   UNL     1      22.577  -1.807  10.646  0.00  0.00    +0.000 C 
ATOM     21  O   UNL     1      23.389  -1.281  11.409  0.00  0.00    +0.000 OA
ATOM     22  H   UNL     1      20.594  -2.240  10.248  0.00  0.00    +0.000 HD
BRANCH  19  23
ATOM     23  C   UNL     1      20.701  -1.364  12.201  0.00  0.00    +0.000 C 
BRANCH  23  24
ATOM     24  C   UNL     1      19.167  -1.306  12.280  0.00  0.00    +0.000 C 
BRANCH  24  25
ATOM     25  C   UNL     1      18.616  -2.288  13.284  0.00  0.00    +0.000 A 
ATOM     26  C   UNL     1      18.209  -1.867  14.557  0.00  0.00    +0.000 A 
ATOM     27  C   UNL     1      17.842  -2.804  15.524  0.00  0.00    +0.000 A 
ATOM     28  C   UNL     1      17.875  -4.166  15.224  0.00  0.00    +0.000 A 
ATOM     29  C   UNL     1      18.228  -4.591  13.945  0.00  0.00    +0.000 A 
ATOM     30  C   UNL     1      18.586  -3.657  12.976  0.00  0.00    +0.000 A 
ENDBRANCH  24  25
ENDBRANCH  23  24
ENDBRANCH  19  23
ENDBRANCH  18  20
ENDBRANCH  17  18
ENDBRANCH  13  17
ENDBRANCH   1  13
BRANCH   1  31
ATOM     31  C   UNL     1      19.268  -2.286   8.235  0.00  0.00    +0.000 C 
BRANCH  31  32
ATOM     32  C   UNL     1      18.049  -3.179   8.262  0.00  0.00    +0.000 A 
ATOM     33  C   UNL     1      17.519  -3.697   7.074  0.00  0.00    +0.000 A 
ATOM     34  C   UNL     1      16.413  -4.555   7.101  0.00  0.00    +0.000 A 
ATOM     35  C   UNL     1      15.807  -4.883   8.314  0.00  0.00    +0.000 A 
ATOM     36  C   UNL     1      16.328  -4.376   9.505  0.00  0.00    +0.000 A 
ATOM     37  C   UNL     1      17.447  -3.539   9.479  0.00  0.00    +0.000 A 
ENDBRANCH  31  32
ENDBRANCH   1  31
TORSDOF 16
ENDMDL
MODEL 2
REMARK VINA RESULT:    -5.452     10.844     14.178
REMARK INTER + INTRA:         -12.855
REMARK INTER:                  -9.609
REMARK INTRA:                  -3.246
REMARK UNBOUND:                -2.622
REMARK  Name = HAL
REMARK  16 active torsions:
REMARK  status: ('A' for Active; 'I' for Inactive)
REMARK    1  A    between atoms: C_1  and  C_7
REMARK    2  A    between atoms: C_7  and  C_8
REMARK    3  A    between atoms: C_8  and  N_9
REMARK    4  A    between atoms: C_10  and  C_12
REMARK    5  A    between atoms: C_12  and  O_13
REMARK    6  A    between atoms: O_13  and  P_14
REMARK    7  A    between atoms: P_14  and  O_16
REMARK    8  A    between atoms: P_14  and  C_17
REMARK    9  A    between atoms: C_17  and  C_18
REMARK   10  A    between atoms: C_17  and  N_25
REMARK   11  A    between atoms: C_18  and  C_19
REMARK   12  A    between atoms: C_26  and  C_28
REMARK   13  A    between atoms: C_28  and  C_29
REMARK   14  A    between atoms: C_29  and  C_30
REMARK   15  A    between atoms: C_30  and  C_31
REMARK   16  A    between atoms: C_31  and  O_32
REMARK                            x       y       z     vdW  Elec       q    Type
REMARK                         _______ _______ _______ _____ _____    ______ ____
ROOT
ATOM      1  C   UNL     1      19.616  -5.674  21.061  0.00  0.00    +0.000 C 
ENDROOT
BRANCH   1   2
ATOM      2  N   UNL     1      19.447  -4.637  22.118  0.00  0.00    +0.000 N 
ATOM      3  C   UNL     1      20.465  -3.900  22.662  0.00  0.00    +0.000 C 
ATOM      4  O   UNL     1      21.632  -4.011  22.306  0.00  0.00    +0.000 OA
ATOM      5  H   UNL     1      18.529  -4.570  22.540  0.00  0.00    +0.000 HD
BRANCH   3   6
ATOM      6  C   UNL     1      20.047  -2.928  23.753  0.00  0.00    +0.000 C 
BRANCH   6   7
ATOM      7  C   UNL     1      19.068  -3.524  24.761  0.00  0.00    +0.000 C 
BRANCH   7   8
ATOM      8  C   UNL     1      17.653  -2.961  24.613  0.00  0.00    +0.000 C 
BRANCH   8   9
ATOM      9  C   UNL     1      16.655  -4.044  24.277  0.00  0.00    +0.000 C 
ATOM     10  O   UNL     1      16.091  -4.756  25.093  0.00  0.00    +0.000 OA
BRANCH   9  11
ATOM     11  O   UNL     1      16.403  -4.126  22.951  0.00  0.00    +0.000 OA
ATOM     12  H   UNL     1      17.157  -4.461  22.428  0.00  0.00    +0.000 HD
ENDBRANCH   9  11
ENDBRANCH   8   9
ENDBRANCH   7   8
ENDBRANCH   6   7
ENDBRANCH   3   6
ENDBRANCH   1   2
BRANCH   1  13
ATOM     13  P   UNL     1      19.661  -7.398  21.672  0.00  0.00    +0.000 P 
ATOM     14  O   UNL     1      19.698  -8.857  22.190  0.00  0.00    +0.000 OA
BRANCH  13  15
ATOM     15  O   UNL     1      20.959  -7.025  22.622  0.00  0.00    +0.000 OA
ATOM     16  H   UNL     1      20.610  -6.921  23.533  0.00  0.00    +0.000 HD
ENDBRANCH  13  15
BRANCH  13  17
ATOM     17  O   UNL     1      18.515  -6.981  22.825  0.00  0.00    +0.000 OA
BRANCH  17  18
ATOM     18  C   UNL     1      17.267  -7.579  23.096  0.00  0.00    +0.000 C 
BRANCH  18  20
ATOM     19  N   UNL     1      15.939  -7.981  21.007  0.00  0.00    +0.000 N 
ATOM     20  C   UNL     1      15.936  -7.450  22.286  0.00  0.00    +0.000 C 
ATOM     21  O   UNL     1      14.975  -6.827  22.738  0.00  0.00    +0.000 OA
ATOM     22  H   UNL     1      16.809  -8.342  20.636  0.00  0.00    +0.000 HD
BRANCH  19  23
ATOM     23  C   UNL     1      14.832  -7.722  20.085  0.00  0.00    +0.000 C 
BRANCH  23  24
ATOM     24  C   UNL     1      15.175  -6.816  18.892  0.00  0.00    +0.000 C 
BRANCH  24  25
ATOM     25  C   UNL     1      14.283  -5.600  18.830  0.00  0.00    +0.000 A 
ATOM     26  C   UNL     1      13.222  -5.438  19.731  0.00  0.00    +0.000 A 
ATOM     27  C   UNL     1      12.317  -4.387  19.568  0.00  0.00    +0.000 A 
ATOM     28  C   UNL     1      12.470  -3.492  18.510  0.00  0.00    +0.000 A 
ATOM     29  C   UNL     1      13.551  -3.616  17.641  0.00  0.00    +0.000 A 
ATOM     30  C   UNL     1      14.460  -4.658  17.805  0.00  0.00    +0.000 A 
ENDBRANCH  24  25
ENDBRANCH  23  24
ENDBRANCH  19  23
ENDBRANCH  18  20
ENDBRANCH  17  18
ENDBRANCH  13  17
ENDBRANCH   1  13
BRANCH   1  31
ATOM     31  C   UNL     1      18.488  -5.498  19.993  0.00  0.00    +0.000 C 
BRANCH  31  32
ATOM     32  C   UNL     1      18.824  -4.660  18.782  0.00  0.00    +0.000 A 
ATOM     33  C   UNL     1      17.956  -4.613  17.685  0.00  0.00    +0.000 A 
ATOM     34  C   UNL     1      18.247  -3.807  16.578  0.00  0.00    +0.000 A 
ATOM     35  C   UNL     1      19.423  -3.059  16.544  0.00  0.00    +0.000 A 
ATOM     36  C   UNL     1      20.295  -3.093  17.634  0.00  0.00    +0.000 A 
ATOM     37  C   UNL     1      19.991  -3.880  18.748  0.00  0.00    +0.000 A 
ENDBRANCH  31  32
ENDBRANCH   1  31
TORSDOF 16
ENDMDL
MODEL 3
REMARK VINA RESULT:    -5.412      3.485      7.266
REMARK INTER + INTRA:         -12.780
REMARK INTER:                 -10.840
REMARK INTRA:                  -1.940
REMARK UNBOUND:                -2.622
REMARK  Name = HAL
REMARK  16 active torsions:
REMARK  status: ('A' for Active; 'I' for Inactive)
REMARK    1  A    between atoms: C_1  and  C_7
REMARK    2  A    between atoms: C_7  and  C_8
REMARK    3  A    between atoms: C_8  and  N_9
REMARK    4  A    between atoms: C_10  and  C_12
REMARK    5  A    between atoms: C_12  and  O_13
REMARK    6  A    between atoms: O_13  and  P_14
REMARK    7  A    between atoms: P_14  and  O_16
REMARK    8  A    between atoms: P_14  and  C_17
REMARK    9  A    between atoms: C_17  and  C_18
REMARK   10  A    between atoms: C_17  and  N_25
REMARK   11  A    between atoms: C_18  and  C_19
REMARK   12  A    between atoms: C_26  and  C_28
REMARK   13  A    between atoms: C_28  and  C_29
REMARK   14  A    between atoms: C_29  and  C_30
REMARK   15  A    between atoms: C_30  and  C_31
REMARK   16  A    between atoms: C_31  and  O_32
REMARK                            x       y       z     vdW  Elec       q    Type
REMARK                         _______ _______ _______ _____ _____    ______ ____
ROOT
ATOM      1  C   UNL     1      15.502  -5.672   8.228  0.00  0.00    +0.000 C 
ENDROOT
BRANCH   1   2
ATOM      2  N   UNL     1      16.461  -5.276   9.298  0.00  0.00    +0.000 N 
ATOM      3  C   UNL     1      16.907  -3.999   9.517  0.00  0.00    +0.000 C 
ATOM      4  O   UNL     1      16.532  -3.040   8.853  0.00  0.00    +0.000 OA
ATOM      5  H   UNL     1      16.899  -6.030   9.813  0.00  0.00    +0.000 HD
BRANCH   3   6
ATOM      6  C   UNL     1      17.913  -3.851  10.646  0.00  0.00    +0.000 C 
BRANCH   6   7
ATOM      7  C   UNL     1      18.651  -2.515  10.637  0.00  0.00    +0.000 C 
BRANCH   7   8
ATOM      8  C   UNL     1      18.351  -1.667  11.875  0.00  0.00    +0.000 C 
BRANCH   8   9
ATOM      9  C   UNL     1      19.615  -1.279  12.606  0.00  0.00    +0.000 C 
ATOM     10  O   UNL     1      20.131  -1.923  13.505  0.00  0.00    +0.000 OA
BRANCH   9  11
ATOM     11  O   UNL     1      20.163  -0.138  12.129  0.00  0.00    +0.000 OA
ATOM     12  H   UNL     1      20.176  -0.087  11.153  0.00  0.00    +0.000 HD
ENDBRANCH   9  11
ENDBRANCH   8   9
ENDBRANCH   7   8
ENDBRANCH   6   7
ENDBRANCH   3   6
ENDBRANCH   1   2
BRANCH   1  13
ATOM     13  P   UNL     1      16.262  -6.019   6.601  0.00  0.00    +0.000 P 
ATOM     14  O   UNL     1      16.906  -6.313   5.223  0.00  0.00    +0.000 OA
BRANCH  13  15
ATOM     15  O   UNL     1      16.329  -4.399   6.290  0.00  0.00    +0.000 OA
ATOM     16  H   UNL     1      17.281  -4.164   6.271  0.00  0.00    +0.000 HD
ENDBRANCH  13  15
BRANCH  13  17
ATOM     17  O   UNL     1      17.760  -6.082   7.354  0.00  0.00    +0.000 OA
BRANCH  17  18
ATOM     18  C   UNL     1      18.994  -5.550   6.926  0.00  0.00    +0.000 C 
BRANCH  18  20
ATOM     19  N   UNL     1      19.089  -3.046   6.841  0.00  0.00    +0.000 N 
ATOM     20  C   UNL     1      19.663  -4.201   7.344  0.00  0.00    +0.000 C 
ATOM     21  O   UNL     1      20.699  -4.184   8.011  0.00  0.00    +0.000 OA
ATOM     22  H   UNL     1      18.333  -3.134   6.174  0.00  0.00    +0.000 HD
BRANCH  19  23
ATOM     23  C   UNL     1      19.758  -1.752   6.983  0.00  0.00    +0.000 C 
BRANCH  23  24
ATOM     24  C   UNL     1      19.890  -0.940   5.685  0.00  0.00    +0.000 C 
BRANCH  24  25
ATOM     25  C   UNL     1      21.081  -0.014   5.717  0.00  0.00    +0.000 A 
ATOM     26  C   UNL     1      22.165  -0.261   6.569  0.00  0.00    +0.000 A 
ATOM     27  C   UNL     1      23.188   0.681   6.697  0.00  0.00    +0.000 A 
ATOM     28  C   UNL     1      23.137   1.870   5.970  0.00  0.00    +0.000 A 
ATOM     29  C   UNL     1      22.088   2.101   5.081  0.00  0.00    +0.000 A 
ATOM     30  C   UNL     1      21.071   1.159   4.946  0.00  0.00    +0.000 A 
ENDBRANCH  24  25
ENDBRANCH  23  24
ENDBRANCH  19  23
ENDBRANCH  18  20
ENDBRANCH  17  18
ENDBRANCH  13  17
ENDBRANCH   1  13
BRANCH   1  31
ATOM     31  C   UNL     1      14.674  -6.903   8.722  0.00  0.00    +0.000 C 
BRANCH  31  32
ATOM     32  C   UNL     1      13.173  -6.820   8.562  0.00  0.00    +0.000 A 
ATOM     33  C   UNL     1      12.568  -7.136   7.340  0.00  0.00    +0.000 A 
ATOM     34  C   UNL     1      11.176  -7.097   7.201  0.00  0.00    +0.000 A 
ATOM     35  C   UNL     1      10.374  -6.714   8.275  0.00  0.00    +0.000 A 
ATOM     36  C   UNL     1      10.964  -6.401   9.501  0.00  0.00    +0.000 A 
ATOM     37  C   UNL     1      12.352  -6.464   9.645  0.00  0.00    +0.000 A 
ENDBRANCH  31  32
ENDBRANCH   1  31
TORSDOF 16
ENDMDL
MODEL 4
REMARK VINA RESULT:    -5.408      2.131      6.886
REMARK INTER + INTRA:         -12.773
REMARK INTER:                  -9.994
REMARK INTRA:                  -2.779
REMARK UNBOUND:                -2.622
REMARK  Name = HAL
REMARK  16 active torsions:
REMARK  status: ('A' for Active; 'I' for Inactive)
REMARK    1  A    between atoms: C_1  and  C_7
REMARK    2  A    between atoms: C_7  and  C_8
REMARK    3  A    between atoms: C_8  and  N_9
REMARK    4  A    between atoms: C_10  and  C_12
REMARK    5  A    between atoms: C_12  and  O_13
REMARK    6  A    between atoms: O_13  and  P_14
REMARK    7  A    between atoms: P_14  and  O_16
REMARK    8  A    between atoms: P_14  and  C_17
REMARK    9  A    between atoms: C_17  and  C_18
REMARK   10  A    between atoms: C_17  and  N_25
REMARK   11  A    between atoms: C_18  and  C_19
REMARK   12  A    between atoms: C_26  and  C_28
REMARK   13  A    between atoms: C_28  and  C_29
REMARK   14  A    between atoms: C_29  and  C_30
REMARK   15  A    between atoms: C_30  and  C_31
REMARK   16  A    between atoms: C_31  and  O_32
REMARK                            x       y       z     vdW  Elec       q    Type
REMARK                         _______ _______ _______ _____ _____    ______ ____
ROOT
ATOM      1  C   UNL     1      20.581  -2.609  11.363  0.00  0.00    +0.000 C 
ENDROOT
BRANCH   1   2
ATOM      2  N   UNL     1      19.545  -2.378  10.317  0.00  0.00    +0.000 N 
ATOM      3  C   UNL     1      18.283  -2.910  10.333  0.00  0.00    +0.000 C 
ATOM      4  O   UNL     1      17.872  -3.624  11.241  0.00  0.00    +0.000 OA
ATOM      5  H   UNL     1      19.848  -1.892   9.482  0.00  0.00    +0.000 HD
BRANCH   3   6
ATOM      6  C   UNL     1      17.418  -2.559   9.134  0.00  0.00    +0.000 C 
BRANCH   6   7
ATOM      7  C   UNL     1      17.528  -3.559   7.986  0.00  0.00    +0.000 C 
BRANCH   7   8
ATOM      8  C   UNL     1      18.454  -3.076   6.869  0.00  0.00    +0.000 C 
BRANCH   8   9
ATOM      9  C   UNL     1      19.748  -3.856   6.840  0.00  0.00    +0.000 C 
ATOM     10  O   UNL     1      20.417  -4.141   7.822  0.00  0.00    +0.000 OA
BRANCH   9  11
ATOM     11  O   UNL     1      20.087  -4.257   5.594  0.00  0.00    +0.000 OA
ATOM     12  H   UNL     1      19.408  -4.811   5.162  0.00  0.00    +0.000 HD
ENDBRANCH   9  11
ENDBRANCH   8   9
ENDBRANCH   7   8
ENDBRANCH   6   7
ENDBRANCH   3   6
ENDBRANCH   1   2
BRANCH   1  13
ATOM     13  P   UNL     1      22.280  -2.844  10.727  0.00  0.00    +0.000 P 
ATOM     14  O   UNL     1      23.719  -3.042  10.189  0.00  0.00    +0.000 OA
BRANCH  13  15
ATOM     15  O   UNL     1      21.865  -2.055   9.336  0.00  0.00    +0.000 OA
ATOM     16  H   UNL     1      22.708  -1.840   8.883  0.00  0.00    +0.000 HD
ENDBRANCH  13  15
BRANCH  13  17
ATOM     17  O   UNL     1      22.741  -1.454  11.547  0.00  0.00    +0.000 OA
BRANCH  17  18
ATOM     18  C   UNL     1      23.970  -0.764  11.506  0.00  0.00    +0.000 C 
BRANCH  18  20
ATOM     19  N   UNL     1      23.577   0.584   9.429  0.00  0.00    +0.000 N 
ATOM     20  C   UNL     1      24.438   0.319  10.480  0.00  0.00    +0.000 C 
ATOM     21  O   UNL     1      25.554   0.832  10.563  0.00  0.00    +0.000 OA
ATOM     22  H   UNL     1      22.744   0.018   9.332  0.00  0.00    +0.000 HD
BRANCH  19  23
ATOM     23  C   UNL     1      24.006   1.408   8.298  0.00  0.00    +0.000 C 
BRANCH  23  24
ATOM     24  C   UNL     1      24.067   0.679   6.947  0.00  0.00    +0.000 C 
BRANCH  24  25
ATOM     25  C   UNL     1      22.733   0.681   6.242  0.00  0.00    +0.000 A 
ATOM     26  C   UNL     1      22.341   1.762   5.442  0.00  0.00    +0.000 A 
ATOM     27  C   UNL     1      21.048   1.817   4.919  0.00  0.00    +0.000 A 
ATOM     28  C   UNL     1      20.142   0.791   5.188  0.00  0.00    +0.000 A 
ATOM     29  C   UNL     1      20.539  -0.312   5.940  0.00  0.00    +0.000 A 
ATOM     30  C   UNL     1      21.831  -0.374   6.455  0.00  0.00    +0.000 A 
ENDBRANCH  24  25
ENDBRANCH  23  24
ENDBRANCH  19  23
ENDBRANCH  18  20
ENDBRANCH  17  18
ENDBRANCH  13  17
ENDBRANCH   1  13
BRANCH   1  31
ATOM     31  C   UNL     1      20.536  -1.431  12.390  0.00  0.00    +0.000 C 
BRANCH  31  32
ATOM     32  C   UNL     1      20.079  -1.768  13.790  0.00  0.00    +0.000 A 
ATOM     33  C   UNL     1      21.013  -2.025  14.801  0.00  0.00    +0.000 A 
ATOM     34  C   UNL     1      20.592  -2.301  16.108  0.00  0.00    +0.000 A 
ATOM     35  C   UNL     1      19.232  -2.348  16.413  0.00  0.00    +0.000 A 
ATOM     36  C   UNL     1      18.291  -2.089  15.415  0.00  0.00    +0.000 A 
ATOM     37  C   UNL     1      18.713  -1.791  14.116  0.00  0.00    +0.000 A 
ENDBRANCH  31  32
ENDBRANCH   1  31
TORSDOF 16
ENDMDL
MODEL 5
REMARK VINA RESULT:    -5.374      2.883      5.931
REMARK INTER + INTRA:         -12.708
REMARK INTER:                 -10.217
REMARK INTRA:                  -2.491
REMARK UNBOUND:                -2.622
REMARK  Name = HAL
REMARK  16 active torsions:
REMARK  status: ('A' for Active; 'I' for Inactive)
REMARK    1  A    between atoms: C_1  and  C_7
REMARK    2  A    between atoms: C_7  and  C_8
REMARK    3  A    between atoms: C_8  and  N_9
REMARK    4  A    between atoms: C_10  and  C_12
REMARK    5  A    between atoms: C_12  and  O_13
REMARK    6  A    between atoms: O_13  and  P_14
REMARK    7  A    between atoms: P_14  and  O_16
REMARK    8  A    between atoms: P_14  and  C_17
REMARK    9  A    between atoms: C_17  and  C_18
REMARK   10  A    between atoms: C_17  and  N_25
REMARK   11  A    between atoms: C_18  and  C_19
REMARK   12  A    between atoms: C_26  and  C_28
REMARK   13  A    between atoms: C_28  and  C_29
REMARK   14  A    between atoms: C_29  and  C_30
REMARK   15  A    between atoms: C_30  and  C_31
REMARK   16  A    between atoms: C_31  and  O_32
REMARK                            x       y       z     vdW  Elec       q    Type
REMARK                         _______ _______ _______ _____ _____    ______ ____
ROOT
ATOM      1  C   UNL     1      19.530  -2.635   6.622  0.00  0.00    +0.000 C 
ENDROOT
BRANCH   1   2
ATOM      2  N   UNL     1      18.401  -3.595   6.777  0.00  0.00    +0.000 N 
ATOM      3  C   UNL     1      17.375  -3.460   7.676  0.00  0.00    +0.000 C 
ATOM      4  O   UNL     1      17.278  -2.504   8.437  0.00  0.00    +0.000 OA
ATOM      5  H   UNL     1      18.473  -4.464   6.262  0.00  0.00    +0.000 HD
BRANCH   3   6
ATOM      6  C   UNL     1      16.360  -4.590   7.672  0.00  0.00    +0.000 C 
BRANCH   6   7
ATOM      7  C   UNL     1      15.780  -4.898   9.050  0.00  0.00    +0.000 C 
BRANCH   7   8
ATOM      8  C   UNL     1      16.657  -5.856   9.858  0.00  0.00    +0.000 C 
BRANCH   8   9
ATOM      9  C   UNL     1      16.102  -6.087  11.244  0.00  0.00    +0.000 C 
ATOM     10  O   UNL     1      14.997  -6.547  11.489  0.00  0.00    +0.000 OA
BRANCH   9  11
ATOM     11  O   UNL     1      16.983  -5.768  12.218  0.00  0.00    +0.000 OA
ATOM     12  H   UNL     1      17.471  -4.937  12.050  0.00  0.00    +0.000 HD
ENDBRANCH   9  11
ENDBRANCH   8   9
ENDBRANCH   7   8
ENDBRANCH   6   7
ENDBRANCH   3   6
ENDBRANCH   1   2
BRANCH   1  13
ATOM     13  P   UNL     1      21.158  -3.263   7.171  0.00  0.00    +0.000 P 
ATOM     14  O   UNL     1      22.535  -3.796   7.637  0.00  0.00    +0.000 OA
BRANCH  13  15
ATOM     15  O   UNL     1      21.295  -1.989   8.212  0.00  0.00    +0.000 OA
ATOM     16  H   UNL     1      20.977  -1.201   7.722  0.00  0.00    +0.000 HD
ENDBRANCH  13  15
BRANCH  13  17
ATOM     17  O   UNL     1      20.364  -4.257   8.266  0.00  0.00    +0.000 OA
BRANCH  17  18
ATOM     18  C   UNL     1      20.510  -4.331   9.667  0.00  0.00    +0.000 C 
BRANCH  18  20
ATOM     19  N   UNL     1      19.367  -2.283  10.555  0.00  0.00    +0.000 N 
ATOM     20  C   UNL     1      19.656  -3.621  10.768  0.00  0.00    +0.000 C 
ATOM     21  O   UNL     1      19.342  -4.206  11.805  0.00  0.00    +0.000 OA
ATOM     22  H   UNL     1      19.785  -1.820   9.759  0.00  0.00    +0.000 HD
BRANCH  19  23
ATOM     23  C   UNL     1      18.771  -1.468  11.615  0.00  0.00    +0.000 C 
BRANCH  23  24
ATOM     24  C   UNL     1      19.772  -0.861  12.611  0.00  0.00    +0.000 C 
BRANCH  24  25
ATOM     25  C   UNL     1      19.602  -1.428  13.999  0.00  0.00    +0.000 A 
ATOM     26  C   UNL     1      20.711  -1.671  14.820  0.00  0.00    +0.000 A 
ATOM     27  C   UNL     1      20.552  -2.332  16.039  0.00  0.00    +0.000 A 
ATOM     28  C   UNL     1      19.285  -2.749  16.447  0.00  0.00    +0.000 A 
ATOM     29  C   UNL     1      18.170  -2.466  15.661  0.00  0.00    +0.000 A 
ATOM     30  C   UNL     1      18.325  -1.799  14.448  0.00  0.00    +0.000 A 
ENDBRANCH  24  25
ENDBRANCH  23  24
ENDBRANCH  19  23
ENDBRANCH  18  20
ENDBRANCH  17  18
ENDBRANCH  13  17
ENDBRANCH   1  13
BRANCH   1  31
ATOM     31  C   UNL     1      19.595  -2.167   5.131  0.00  0.00    +0.000 C 
BRANCH  31  32
ATOM     32  C   UNL     1      20.406  -0.925   4.844  0.00  0.00    +0.000 A 
ATOM     33  C   UNL     1      21.527  -0.984   4.008  0.00  0.00    +0.000 A 
ATOM     34  C   UNL     1      22.257   0.173   3.711  0.00  0.00    +0.000 A 
ATOM     35  C   UNL     1      21.890   1.398   4.268  0.00  0.00    +0.000 A 
ATOM     36  C   UNL     1      20.772   1.471   5.100  0.00  0.00    +0.000 A 
ATOM     37  C   UNL     1      20.030   0.319   5.377  0.00  0.00    +0.000 A 
ENDBRANCH  31  32
ENDBRANCH   1  31
TORSDOF 16
ENDMDL
MODEL 6
REMARK VINA RESULT:    -5.319      1.476      2.119
REMARK INTER + INTRA:         -12.606
REMARK INTER:                  -7.762
REMARK INTRA:                  -4.844
REMARK UNBOUND:                -2.622
REMARK  Name = HAL
REMARK  16 active torsions:
REMARK  status: ('A' for Active; 'I' for Inactive)
REMARK    1  A    between atoms: C_1  and  C_7
REMARK    2  A    between atoms: C_7  and  C_8
REMARK    3  A    between atoms: C_8  and  N_9
REMARK    4  A    between atoms: C_10  and  C_12
REMARK    5  A    between atoms: C_12  and  O_13
REMARK    6  A    between atoms: O_13  and  P_14
REMARK    7  A    between atoms: P_14  and  O_16
REMARK    8  A    between atoms: P_14  and  C_17
REMARK    9  A    between atoms: C_17  and  C_18
REMARK   10  A    between atoms: C_17  and  N_25
REMARK   11  A    between atoms: C_18  and  C_19
REMARK   12  A    between atoms: C_26  and  C_28
REMARK   13  A    between atoms: C_28  and  C_29
REMARK   14  A    between atoms: C_29  and  C_30
REMARK   15  A    between atoms: C_30  and  C_31
REMARK   16  A    between atoms: C_31  and  O_32
REMARK                            x       y       z     vdW  Elec       q    Type
REMARK                         _______ _______ _______ _____ _____    ______ ____
ROOT
ATOM      1  C   UNL     1      21.344  -2.727   7.390  0.00  0.00    +0.000 C 
ENDROOT
BRANCH   1   2
ATOM      2  N   UNL     1      21.047  -1.361   6.874  0.00  0.00    +0.000 N 
ATOM      3  C   UNL     1      20.098  -1.069   5.930  0.00  0.00    +0.000 C 
ATOM      4  O   UNL     1      19.373  -1.920   5.429  0.00  0.00    +0.000 OA
ATOM      5  H   UNL     1      21.681  -0.624   7.158  0.00  0.00    +0.000 HD
BRANCH   3   6
ATOM      6  C   UNL     1      20.007   0.396   5.537  0.00  0.00    +0.000 C 
BRANCH   6   7
ATOM      7  C   UNL     1      21.133   0.854   4.614  0.00  0.00    +0.000 C 
BRANCH   7   8
ATOM      8  C   UNL     1      22.038   1.903   5.263  0.00  0.00    +0.000 C 
BRANCH   8   9
ATOM      9  C   UNL     1      23.059   1.269   6.178  0.00  0.00    +0.000 C 
ATOM     10  O   UNL     1      23.330   1.660   7.303  0.00  0.00    +0.000 OA
BRANCH   9  11
ATOM     11  O   UNL     1      23.633   0.171   5.638  0.00  0.00    +0.000 OA
ATOM     12  H   UNL     1      23.967   0.309   4.729  0.00  0.00    +0.000 HD
ENDBRANCH   9  11
ENDBRANCH   8   9
ENDBRANCH   7   8
ENDBRANCH   6   7
ENDBRANCH   3   6
ENDBRANCH   1   2
BRANCH   1  13
ATOM     13  P   UNL     1      23.084  -3.261   7.204  0.00  0.00    +0.000 P 
ATOM     14  O   UNL     1      24.556  -3.712   7.046  0.00  0.00    +0.000 OA
BRANCH  13  15
ATOM     15  O   UNL     1      23.028  -2.872   5.600  0.00  0.00    +0.000 OA
ATOM     16  H   UNL     1      22.081  -2.900   5.345  0.00  0.00    +0.000 HD
ENDBRANCH  13  15
BRANCH  13  17
ATOM     17  O   UNL     1      23.568  -1.734   7.704  0.00  0.00    +0.000 OA
BRANCH  17  18
ATOM     18  C   UNL     1      24.359  -1.372   8.814  0.00  0.00    +0.000 C 
BRANCH  18  20
ATOM     19  N   UNL     1      23.901  -2.566  10.971  0.00  0.00    +0.000 N 
ATOM     20  C   UNL     1      23.953  -1.343  10.324  0.00  0.00    +0.000 C 
ATOM     21  O   UNL     1      23.612  -0.294  10.871  0.00  0.00    +0.000 OA
ATOM     22  H   UNL     1      24.043  -3.407  10.426  0.00  0.00    +0.000 HD
BRANCH  19  23
ATOM     23  C   UNL     1      23.323  -2.682  12.311  0.00  0.00    +0.000 C 
BRANCH  23  24
ATOM     24  C   UNL     1      22.173  -3.692  12.439  0.00  0.00    +0.000 C 
BRANCH  24  25
ATOM     25  C   UNL     1      20.843  -3.011  12.656  0.00  0.00    +0.000 A 
ATOM     26  C   UNL     1      19.705  -3.747  13.012  0.00  0.00    +0.000 A 
ATOM     27  C   UNL     1      18.455  -3.127  13.062  0.00  0.00    +0.000 A 
ATOM     28  C   UNL     1      18.336  -1.770  12.763  0.00  0.00    +0.000 A 
ATOM     29  C   UNL     1      19.470  -1.020  12.459  0.00  0.00    +0.000 A 
ATOM     30  C   UNL     1      20.719  -1.634  12.416  0.00  0.00    +0.000 A 
ENDBRANCH  24  25
ENDBRANCH  23  24
ENDBRANCH  19  23
ENDBRANCH  18  20
ENDBRANCH  17  18
ENDBRANCH  13  17
ENDBRANCH   1  13
BRANCH   1  31
ATOM     31  C   UNL     1      20.900  -2.809   8.887  0.00  0.00    +0.000 C 
BRANCH  31  32
ATOM     32  C   UNL     1      19.471  -3.225   9.150  0.00  0.00    +0.000 A 
ATOM     33  C   UNL     1      19.172  -4.532   9.552  0.00  0.00    +0.000 A 
ATOM     34  C   UNL     1      17.853  -4.908   9.832  0.00  0.00    +0.000 A 
ATOM     35  C   UNL     1      16.815  -3.988   9.689  0.00  0.00    +0.000 A 
ATOM     36  C   UNL     1      17.100  -2.680   9.293  0.00  0.00    +0.000 A 
ATOM     37  C   UNL     1      18.420  -2.300   9.036  0.00  0.00    +0.000 A 
ENDBRANCH  31  32
ENDBRANCH   1  31
TORSDOF 16
ENDMDL
MODEL 7
REMARK VINA RESULT:    -5.247      2.316      5.526
REMARK INTER + INTRA:         -12.469
REMARK INTER:                  -9.495
REMARK INTRA:                  -2.973
REMARK UNBOUND:                -2.622
REMARK  Name = HAL
REMARK  16 active torsions:
REMARK  status: ('A' for Active; 'I' for Inactive)
REMARK    1  A    between atoms: C_1  and  C_7
REMARK    2  A    between atoms: C_7  and  C_8
REMARK    3  A    between atoms: C_8  and  N_9
REMARK    4  A    between atoms: C_10  and  C_12
REMARK    5  A    between atoms: C_12  and  O_13
REMARK    6  A    between atoms: O_13  and  P_14
REMARK    7  A    between atoms: P_14  and  O_16
REMARK    8  A    between atoms: P_14  and  C_17
REMARK    9  A    between atoms: C_17  and  C_18
REMARK   10  A    between atoms: C_17  and  N_25
REMARK   11  A    between atoms: C_18  and  C_19
REMARK   12  A    between atoms: C_26  and  C_28
REMARK   13  A    between atoms: C_28  and  C_29
REMARK   14  A    between atoms: C_29  and  C_30
REMARK   15  A    between atoms: C_30  and  C_31
REMARK   16  A    between atoms: C_31  and  O_32
REMARK                            x       y       z     vdW  Elec       q    Type
REMARK                         _______ _______ _______ _____ _____    ______ ____
ROOT
ATOM      1  C   UNL     1      22.593  -1.562   8.766  0.00  0.00    +0.000 C 
ENDROOT
BRANCH   1   2
ATOM      2  N   UNL     1      22.060  -2.882   9.206  0.00  0.00    +0.000 N 
ATOM      3  C   UNL     1      20.730  -3.206   9.275  0.00  0.00    +0.000 C 
ATOM      4  O   UNL     1      19.838  -2.430   8.953  0.00  0.00    +0.000 OA
ATOM      5  H   UNL     1      22.731  -3.534   9.593  0.00  0.00    +0.000 HD
BRANCH   3   6
ATOM      6  C   UNL     1      20.432  -4.604   9.790  0.00  0.00    +0.000 C 
BRANCH   6   7
ATOM      7  C   UNL     1      19.299  -5.303   9.042  0.00  0.00    +0.000 C 
BRANCH   7   8
ATOM      8  C   UNL     1      18.042  -5.469   9.898  0.00  0.00    +0.000 C 
BRANCH   8   9
ATOM      9  C   UNL     1      16.922  -4.572   9.426  0.00  0.00    +0.000 C 
ATOM     10  O   UNL     1      15.929  -4.948   8.823  0.00  0.00    +0.000 OA
BRANCH   9  11
ATOM     11  O   UNL     1      17.106  -3.280   9.779  0.00  0.00    +0.000 OA
ATOM     12  H   UNL     1      17.183  -2.671   9.018  0.00  0.00    +0.000 HD
ENDBRANCH   9  11
ENDBRANCH   8   9
ENDBRANCH   7   8
ENDBRANCH   6   7
ENDBRANCH   3   6
ENDBRANCH   1   2
BRANCH   1  13
ATOM     13  P   UNL     1      24.154  -1.054   9.574  0.00  0.00    +0.000 P 
ATOM     14  O   UNL     1      25.475  -0.624  10.258  0.00  0.00    +0.000 OA
BRANCH  13  15
ATOM     15  O   UNL     1      23.396   0.275  10.196  0.00  0.00    +0.000 OA
ATOM     16  H   UNL     1      22.435   0.086  10.153  0.00  0.00    +0.000 HD
ENDBRANCH  13  15
BRANCH  13  17
ATOM     17  O   UNL     1      23.770  -2.055  10.865  0.00  0.00    +0.000 OA
BRANCH  17  18
ATOM     18  C   UNL     1      23.452  -1.708  12.195  0.00  0.00    +0.000 C 
BRANCH  18  20
ATOM     19  N   UNL     1      21.058  -0.980  12.038  0.00  0.00    +0.000 N 
ATOM     20  C   UNL     1      22.037  -1.541  12.839  0.00  0.00    +0.000 C 
ATOM     21  O   UNL     1      21.843  -1.813  14.025  0.00  0.00    +0.000 OA
ATOM     22  H   UNL     1      21.321  -0.635  11.124  0.00  0.00    +0.000 HD
BRANCH  19  23
ATOM     23  C   UNL     1      19.770  -0.575  12.602  0.00  0.00    +0.000 C 
BRANCH  23  24
ATOM     24  C   UNL     1      18.605  -1.540  12.328  0.00  0.00    +0.000 C 
BRANCH  24  25
ATOM     25  C   UNL     1      18.445  -2.559  13.430  0.00  0.00    +0.000 A 
ATOM     26  C   UNL     1      18.517  -3.932  13.160  0.00  0.00    +0.000 A 
ATOM     27  C   UNL     1      18.220  -4.861  14.159  0.00  0.00    +0.000 A 
ATOM     28  C   UNL     1      17.853  -4.424  15.432  0.00  0.00    +0.000 A 
ATOM     29  C   UNL     1      17.829  -3.062  15.723  0.00  0.00    +0.000 A 
ATOM     30  C   UNL     1      18.133  -2.133  14.731  0.00  0.00    +0.000 A 
ENDBRANCH  24  25
ENDBRANCH  23  24
ENDBRANCH  19  23
ENDBRANCH  18  20
ENDBRANCH  17  18
ENDBRANCH  13  17
ENDBRANCH   1  13
BRANCH   1  31
ATOM     31  C   UNL     1      22.758  -1.575   7.212  0.00  0.00    +0.000 C 
BRANCH  31  32
ATOM     32  C   UNL     1      22.069  -0.468   6.447  0.00  0.00    +0.000 A 
ATOM     33  C   UNL     1      22.770   0.685   6.076  0.00  0.00    +0.000 A 
ATOM     34  C   UNL     1      22.143   1.694   5.334  0.00  0.00    +0.000 A 
ATOM     35  C   UNL     1      20.800   1.573   4.979  0.00  0.00    +0.000 A 
ATOM     36  C   UNL     1      20.091   0.426   5.339  0.00  0.00    +0.000 A 
ATOM     37  C   UNL     1      20.725  -0.591   6.058  0.00  0.00    +0.000 A 
ENDBRANCH  31  32
ENDBRANCH   1  31
TORSDOF 16
ENDMDL
MODEL 8
REMARK VINA RESULT:    -5.181      2.072      7.215
REMARK INTER + INTRA:         -12.346
REMARK INTER:                 -10.127
REMARK INTRA:                  -2.219
REMARK UNBOUND:                -2.622
REMARK  Name = HAL
REMARK  16 active torsions:
REMARK  status: ('A' for Active; 'I' for Inactive)
REMARK    1  A    between atoms: C_1  and  C_7
REMARK    2  A    between atoms: C_7  and  C_8
REMARK    3  A    between atoms: C_8  and  N_9
REMARK    4  A    between atoms: C_10  and  C_12
REMARK    5  A    between atoms: C_12  and  O_13
REMARK    6  A    between atoms: O_13  and  P_14
REMARK    7  A    between atoms: P_14  and  O_16
REMARK    8  A    between atoms: P_14  and  C_17
REMARK    9  A    between atoms: C_17  and  C_18
REMARK   10  A    between atoms: C_17  and  N_25
REMARK   11  A    between atoms: C_18  and  C_19
REMARK   12  A    between atoms: C_26  and  C_28
REMARK   13  A    between atoms: C_28  and  C_29
REMARK   14  A    between atoms: C_29  and  C_30
REMARK   15  A    between atoms: C_30  and  C_31
REMARK   16  A    between atoms: C_31  and  O_32
REMARK                            x       y       z     vdW  Elec       q    Type
REMARK                         _______ _______ _______ _____ _____    ______ ____
ROOT
ATOM      1  C   UNL     1      19.258  -2.944  10.858  0.00  0.00    +0.000 C 
ENDROOT
BRANCH   1   2
ATOM      2  N   UNL     1      20.623  -3.065  10.273  0.00  0.00    +0.000 N 
ATOM      3  C   UNL     1      21.747  -2.461  10.774  0.00  0.00    +0.000 C 
ATOM      4  O   UNL     1      21.736  -1.769  11.785  0.00  0.00    +0.000 OA
ATOM      5  H   UNL     1      20.689  -3.527   9.375  0.00  0.00    +0.000 HD
BRANCH   3   6
ATOM      6  C   UNL     1      23.019  -2.704   9.980  0.00  0.00    +0.000 C 
BRANCH   6   7
ATOM      7  C   UNL     1      23.555  -1.455   9.284  0.00  0.00    +0.000 C 
BRANCH   7   8
ATOM      8  C   UNL     1      24.857  -0.946   9.906  0.00  0.00    +0.000 C 
BRANCH   8   9
ATOM      9  C   UNL     1      24.602   0.142  10.923  0.00  0.00    +0.000 C 
ATOM     10  O   UNL     1      25.046   0.156  12.060  0.00  0.00    +0.000 OA
BRANCH   9  11
ATOM     11  O   UNL     1      23.849   1.150  10.428  0.00  0.00    +0.000 OA
ATOM     12  H   UNL     1      24.248   1.596   9.656  0.00  0.00    +0.000 HD
ENDBRANCH   9  11
ENDBRANCH   8   9
ENDBRANCH   7   8
ENDBRANCH   6   7
ENDBRANCH   3   6
ENDBRANCH   1   2
BRANCH   1  13
ATOM     13  P   UNL     1      17.900  -2.858   9.636  0.00  0.00    +0.000 P 
ATOM     14  O   UNL     1      16.750  -2.785   8.600  0.00  0.00    +0.000 OA
BRANCH  13  15
ATOM     15  O   UNL     1      18.115  -1.225   9.516  0.00  0.00    +0.000 OA
ATOM     16  H   UNL     1      19.053  -1.091   9.264  0.00  0.00    +0.000 HD
ENDBRANCH  13  15
BRANCH  13  17
ATOM     17  O   UNL     1      19.007  -3.236   8.433  0.00  0.00    +0.000 OA
BRANCH  17  18
ATOM     18  C   UNL     1      19.054  -2.789   7.096  0.00  0.00    +0.000 C 
BRANCH  18  20
ATOM     19  N   UNL     1      19.677  -0.980   5.475  0.00  0.00    +0.000 N 
ATOM     20  C   UNL     1      20.135  -1.887   6.415  0.00  0.00    +0.000 C 
ATOM     21  O   UNL     1      21.334  -2.049   6.644  0.00  0.00    +0.000 OA
ATOM     22  H   UNL     1      18.698  -1.004   5.218  0.00  0.00    +0.000 HD
BRANCH  19  23
ATOM     23  C   UNL     1      20.613  -0.248   4.621  0.00  0.00    +0.000 C 
BRANCH  23  24
ATOM     24  C   UNL     1      20.922   1.188   5.073  0.00  0.00    +0.000 C 
BRANCH  24  25
ATOM     25  C   UNL     1      22.389   1.386   5.365  0.00  0.00    +0.000 A 
ATOM     26  C   UNL     1      22.923   1.076   6.623  0.00  0.00    +0.000 A 
ATOM     27  C   UNL     1      24.246   1.403   6.925  0.00  0.00    +0.000 A 
ATOM     28  C   UNL     1      25.044   2.035   5.971  0.00  0.00    +0.000 A 
ATOM     29  C   UNL     1      24.537   2.299   4.701  0.00  0.00    +0.000 A 
ATOM     30  C   UNL     1      23.220   1.967   4.395  0.00  0.00    +0.000 A 
ENDBRANCH  24  25
ENDBRANCH  23  24
ENDBRANCH  19  23
ENDBRANCH  18  20
ENDBRANCH  17  18
ENDBRANCH  13  17
ENDBRANCH   1  13
BRANCH   1  31
ATOM     31  C   UNL     1      19.028  -4.127  11.854  0.00  0.00    +0.000 C 
BRANCH  31  32
ATOM     32  C   UNL     1      18.602  -3.761  13.257  0.00  0.00    +0.000 A 
ATOM     33  C   UNL     1      18.594  -2.425  13.674  0.00  0.00    +0.000 A 
ATOM     34  C   UNL     1      18.165  -2.081  14.961  0.00  0.00    +0.000 A 
ATOM     35  C   UNL     1      17.763  -3.072  15.855  0.00  0.00    +0.000 A 
ATOM     36  C   UNL     1      17.762  -4.408  15.451  0.00  0.00    +0.000 A 
ATOM     37  C   UNL     1      18.168  -4.748  14.158  0.00  0.00    +0.000 A 
ENDBRANCH  31  32
ENDBRANCH   1  31
TORSDOF 16
ENDMDL
MODEL 9
REMARK VINA RESULT:    -5.087      2.156      3.983
REMARK INTER + INTRA:         -12.169
REMARK INTER:                  -7.604
REMARK INTRA:                  -4.566
REMARK UNBOUND:                -2.622
REMARK  Name = HAL
REMARK  16 active torsions:
REMARK  status: ('A' for Active; 'I' for Inactive)
REMARK    1  A    between atoms: C_1  and  C_7
REMARK    2  A    between atoms: C_7  and  C_8
REMARK    3  A    between atoms: C_8  and  N_9
REMARK    4  A    between atoms: C_10  and  C_12
REMARK    5  A    between atoms: C_12  and  O_13
REMARK    6  A    between atoms: O_13  and  P_14
REMARK    7  A    between atoms: P_14  and  O_16
REMARK    8  A    between atoms: P_14  and  C_17
REMARK    9  A    between atoms: C_17  and  C_18
REMARK   10  A    between atoms: C_17  and  N_25
REMARK   11  A    between atoms: C_18  and  C_19
REMARK   12  A    between atoms: C_26  and  C_28
REMARK   13  A    between atoms: C_28  and  C_29
REMARK   14  A    between atoms: C_29  and  C_30
REMARK   15  A    between atoms: C_30  and  C_31
REMARK   16  A    between atoms: C_31  and  O_32
REMARK                            x       y       z     vdW  Elec       q    Type
REMARK                         _______ _______ _______ _____ _____    ______ ____
ROOT
ATOM      1  C   UNL     1      22.674  -2.661   9.172  0.00  0.00    +0.000 C 
ENDROOT
BRANCH   1   2
ATOM      2  N   UNL     1      22.791  -1.295   8.588  0.00  0.00    +0.000 N 
ATOM      3  C   UNL     1      23.055  -1.026   7.271  0.00  0.00    +0.000 C 
ATOM      4  O   UNL     1      23.199  -1.904   6.427  0.00  0.00    +0.000 OA
ATOM      5  H   UNL     1      22.796  -0.524   9.244  0.00  0.00    +0.000 HD
BRANCH   3   6
ATOM      6  C   UNL     1      23.165   0.448   6.922  0.00  0.00    +0.000 C 
BRANCH   6   7
ATOM      7  C   UNL     1      24.467   1.093   7.390  0.00  0.00    +0.000 C 
BRANCH   7   8
ATOM      8  C   UNL     1      24.265   2.035   8.578  0.00  0.00    +0.000 C 
BRANCH   8   9
ATOM      9  C   UNL     1      24.771   1.426   9.866  0.00  0.00    +0.000 C 
ATOM     10  O   UNL     1      25.924   1.482  10.262  0.00  0.00    +0.000 OA
BRANCH   9  11
ATOM     11  O   UNL     1      23.790   0.830  10.580  0.00  0.00    +0.000 OA
ATOM     12  H   UNL     1      23.103   1.449  10.897  0.00  0.00    +0.000 HD
ENDBRANCH   9  11
ENDBRANCH   8   9
ENDBRANCH   7   8
ENDBRANCH   6   7
ENDBRANCH   3   6
ENDBRANCH   1   2
BRANCH   1  13
ATOM     13  P   UNL     1      23.617  -2.924  10.717  0.00  0.00    +0.000 P 
ATOM     14  O   UNL     1      24.415  -3.145  12.026  0.00  0.00    +0.000 OA
BRANCH  13  15
ATOM     15  O   UNL     1      24.860  -2.024  10.108  0.00  0.00    +0.000 OA
ATOM     16  H   UNL     1      25.670  -2.331  10.568  0.00  0.00    +0.000 HD
ENDBRANCH  13  15
BRANCH  13  17
ATOM     17  O   UNL     1      22.809  -1.615  11.390  0.00  0.00    +0.000 OA
BRANCH  17  18
ATOM     18  C   UNL     1      22.121  -1.531  12.618  0.00  0.00    +0.000 C 
BRANCH  18  20
ATOM     19  N   UNL     1      20.164  -3.054  12.987  0.00  0.00    +0.000 N 
ATOM     20  C   UNL     1      20.596  -1.743  12.889  0.00  0.00    +0.000 C 
ATOM     21  O   UNL     1      19.818  -0.789  12.921  0.00  0.00    +0.000 OA
ATOM     22  H   UNL     1      20.826  -3.796  12.797  0.00  0.00    +0.000 HD
BRANCH  19  23
ATOM     23  C   UNL     1      18.736  -3.373  13.017  0.00  0.00    +0.000 C 
BRANCH  23  24
ATOM     24  C   UNL     1      18.329  -4.616  12.210  0.00  0.00    +0.000 C 
BRANCH  24  25
ATOM     25  C   UNL     1      17.729  -4.252  10.874  0.00  0.00    +0.000 A 
ATOM     26  C   UNL     1      17.725  -2.925  10.423  0.00  0.00    +0.000 A 
ATOM     27  C   UNL     1      17.037  -2.581   9.258  0.00  0.00    +0.000 A 
ATOM     28  C   UNL     1      16.354  -3.559   8.536  0.00  0.00    +0.000 A 
ATOM     29  C   UNL     1      16.396  -4.889   8.949  0.00  0.00    +0.000 A 
ATOM     30  C   UNL     1      17.089  -5.236  10.106  0.00  0.00    +0.000 A 
ENDBRANCH  24  25
ENDBRANCH  23  24
ENDBRANCH  19  23
ENDBRANCH  18  20
ENDBRANCH  17  18
ENDBRANCH  13  17
ENDBRANCH   1  13
BRANCH   1  31
ATOM     31  C   UNL     1      21.161  -2.991   9.388  0.00  0.00    +0.000 C 
BRANCH  31  32
ATOM     32  C   UNL     1      20.415  -3.568   8.207  0.00  0.00    +0.000 A 
ATOM     33  C   UNL     1      20.233  -4.951   8.086  0.00  0.00    +0.000 A 
ATOM     34  C   UNL     1      19.510  -5.484   7.012  0.00  0.00    +0.000 A 
ATOM     35  C   UNL     1      18.985  -4.642   6.032  0.00  0.00    +0.000 A 
ATOM     36  C   UNL     1      19.155  -3.261   6.143  0.00  0.00    +0.000 A 
ATOM     37  C   UNL     1      19.857  -2.729   7.229  0.00  0.00    +0.000 A 
ENDBRANCH  31  32
ENDBRANCH   1  31
TORSDOF 16
ENDMDL
MODEL 10
REMARK VINA RESULT:    -5.082      3.709      6.199
REMARK INTER + INTRA:         -12.160
REMARK INTER:                  -9.538
REMARK INTRA:                  -2.622
REMARK UNBOUND:                -2.622
REMARK  Name = HAL
REMARK  16 active torsions:
REMARK  status: ('A' for Active; 'I' for Inactive)
REMARK    1  A    between atoms: C_1  and  C_7
REMARK    2  A    between atoms: C_7  and  C_8
REMARK    3  A    between atoms: C_8  and  N_9
REMARK    4  A    between atoms: C_10  and  C_12
REMARK    5  A    between atoms: C_12  and  O_13
REMARK    6  A    between atoms: O_13  and  P_14
REMARK    7  A    between atoms: P_14  and  O_16
REMARK    8  A    between atoms: P_14  and  C_17
REMARK    9  A    between atoms: C_17  and  C_18
REMARK   10  A    between atoms: C_17  and  N_25
REMARK   11  A    between atoms: C_18  and  C_19
REMARK   12  A    between atoms: C_26  and  C_28
REMARK   13  A    between atoms: C_28  and  C_29
REMARK   14  A    between atoms: C_29  and  C_30
REMARK   15  A    between atoms: C_30  and  C_31
REMARK   16  A    between atoms: C_31  and  O_32
REMARK                            x       y       z     vdW  Elec       q    Type
REMARK                         _______ _______ _______ _____ _____    ______ ____
ROOT
ATOM      1  C   UNL     1      17.888  -3.818   7.305  0.00  0.00    +0.000 C 
ENDROOT
BRANCH   1   2
ATOM      2  N   UNL     1      18.547  -3.174   6.134  0.00  0.00    +0.000 N 
ATOM      3  C   UNL     1      19.891  -2.925   6.030  0.00  0.00    +0.000 C 
ATOM      4  O   UNL     1      20.695  -3.235   6.900  0.00  0.00    +0.000 OA
ATOM      5  H   UNL     1      17.933  -2.789   5.426  0.00  0.00    +0.000 HD
BRANCH   3   6
ATOM      6  C   UNL     1      20.320  -2.223   4.752  0.00  0.00    +0.000 C 
BRANCH   6   7
ATOM      7  C   UNL     1      19.716  -0.832   4.584  0.00  0.00    +0.000 C 
BRANCH   7   8
ATOM      8  C   UNL     1      20.068   0.108   5.739  0.00  0.00    +0.000 C 
BRANCH   8   9
ATOM      9  C   UNL     1      21.450   0.696   5.579  0.00  0.00    +0.000 C 
ATOM     10  O   UNL     1      22.330   0.659   6.425  0.00  0.00    +0.000 OA
BRANCH   9  11
ATOM     11  O   UNL     1      21.643   1.248   4.360  0.00  0.00    +0.000 OA
ATOM     12  H   UNL     1      20.877   1.759   4.034  0.00  0.00    +0.000 HD
ENDBRANCH   9  11
ENDBRANCH   8   9
ENDBRANCH   7   8
ENDBRANCH   6   7
ENDBRANCH   3   6
ENDBRANCH   1   2
BRANCH   1  13
ATOM     13  P   UNL     1      17.880  -2.812   8.834  0.00  0.00    +0.000 P 
ATOM     14  O   UNL     1      17.874  -1.962  10.128  0.00  0.00    +0.000 OA
BRANCH  13  15
ATOM     15  O   UNL     1      16.335  -3.304   9.145  0.00  0.00    +0.000 OA
ATOM     16  H   UNL     1      16.047  -3.815   8.359  0.00  0.00    +0.000 HD
ENDBRANCH  13  15
BRANCH  13  17
ATOM     17  O   UNL     1      18.603  -4.095   9.638  0.00  0.00    +0.000 OA
BRANCH  17  18
ATOM     18  C   UNL     1      18.332  -5.475   9.536  0.00  0.00    +0.000 C 
BRANCH  18  20
ATOM     19  N   UNL     1      16.675  -7.313   9.132  0.00  0.00    +0.000 N 
ATOM     20  C   UNL     1      17.023  -6.236   9.928  0.00  0.00    +0.000 C 
ATOM     21  O   UNL     1      16.303  -5.832  10.842  0.00  0.00    +0.000 OA
ATOM     22  H   UNL     1      17.225  -7.499   8.303  0.00  0.00    +0.000 HD
BRANCH  19  23
ATOM     23  C   UNL     1      15.366  -7.954   9.268  0.00  0.00    +0.000 C 
BRANCH  23  24
ATOM     24  C   UNL     1      14.580  -8.117   7.958  0.00  0.00    +0.000 C 
BRANCH  24  25
ATOM     25  C   UNL     1      13.264  -7.379   7.992  0.00  0.00    +0.000 A 
ATOM     26  C   UNL     1      12.827  -6.737   9.159  0.00  0.00    +0.000 A 
ATOM     27  C   UNL     1      11.545  -6.188   9.221  0.00  0.00    +0.000 A 
ATOM     28  C   UNL     1      10.696  -6.272   8.118  0.00  0.00    +0.000 A 
ATOM     29  C   UNL     1      11.141  -6.863   6.937  0.00  0.00    +0.000 A 
ATOM     30  C   UNL     1      12.422  -7.404   6.870  0.00  0.00    +0.000 A 
ENDBRANCH  24  25
ENDBRANCH  23  24
ENDBRANCH  19  23
ENDBRANCH  18  20
ENDBRANCH  17  18
ENDBRANCH  13  17
ENDBRANCH   1  13
BRANCH   1  31
ATOM     31  C   UNL     1      16.432  -4.224   6.906  0.00  0.00    +0.000 C 
BRANCH  31  32
ATOM     32  C   UNL     1      16.288  -5.398   5.966  0.00  0.00    +0.000 A 
ATOM     33  C   UNL     1      15.134  -5.551   5.188  0.00  0.00    +0.000 A 
ATOM     34  C   UNL     1      15.015  -6.617   4.289  0.00  0.00    +0.000 A 
ATOM     35  C   UNL     1      16.038  -7.558   4.177  0.00  0.00    +0.000 A 
ATOM     36  C   UNL     1      17.195  -7.416   4.944  0.00  0.00    +0.000 A 
ATOM     37  C   UNL     1      17.323  -6.337   5.823  0.00  0.00    +0.000 A 
ENDBRANCH  31  32
ENDBRANCH   1  31
TORSDOF 16
ENDMDL
