MODEL 1
REMARK VINA RESULT:    -4.173      0.000      0.000
REMARK INTER + INTRA:          -6.060
REMARK INTER:                  -5.763
REMARK INTRA:                  -0.297
REMARK UNBOUND:                -0.422
REMARK  Name = 26757
REMARK  7 active torsions:
REMARK  status: ('A' for Active; 'I' for Inactive)
REMARK    1  A    between atoms: N_1  and  C_2
REMARK    2  A    between atoms: N_1  and  C_6
REMARK    3  A    between atoms: N_1  and  C_7
REMARK    4  A    between atoms: C_2  and  C_3
REMARK    5  A    between atoms: C_2  and  C_4
REMARK    6  A    between atoms: C_3  and  C_5
REMARK    7  A    between atoms: C_6  and  C_13
REMARK                            x       y       z     vdW  Elec       q    Type
REMARK                         _______ _______ _______ _____ _____    ______ ____
ROOT
ATOM      1  C   UNL     1      19.417  -2.188   7.165  0.00  0.00    +0.000 C 
ATOM      2  H   UNL     1      18.840  -1.252   7.131  0.00  0.00    +0.000 HD
ENDROOT
BRANCH   1   3
ATOM      3  C   UNL     1      18.690  -3.107   6.165  0.00  0.00    +0.000 C 
ATOM      4  H   UNL     1      17.939  -3.724   6.670  0.00  0.00    +0.000 HD
ATOM      5  H   UNL     1      18.143  -2.514   5.422  0.00  0.00    +0.000 HD
ATOM      6  H   UNL     1      19.373  -3.773   5.633  0.00  0.00    +0.000 HD
ENDBRANCH   1   3
BRANCH   1   7
ATOM      7  C   UNL     1      20.828  -1.811   6.607  0.00  0.00    +0.000 C 
ATOM      8  H   UNL     1      21.573  -2.104   7.358  0.00  0.00    +0.000 HD
ATOM      9  H   UNL     1      21.014  -2.464   5.742  0.00  0.00    +0.000 HD
BRANCH   7  10
ATOM     10  C   UNL     1      21.188  -0.407   6.154  0.00  0.00    +0.000 A 
ATOM     11  C   UNL     1      20.390   0.406   5.347  0.00  0.00    +0.000 A 
ATOM     12  C   UNL     1      22.442   0.093   6.561  0.00  0.00    +0.000 A 
ATOM     13  C   UNL     1      20.859   1.651   4.904  0.00  0.00    +0.000 A 
ATOM     14  C   UNL     1      22.914   1.327   6.114  0.00  0.00    +0.000 A 
ATOM     15  C   UNL     1      22.127   2.099   5.268  0.00  0.00    +0.000 A 
ATOM     16  H   UNL     1      19.405   0.083   5.026  0.00  0.00    +0.000 HD
ATOM     17  H   UNL     1      23.074  -0.499   7.221  0.00  0.00    +0.000 HD
ATOM     18  H   UNL     1      20.236   2.262   4.257  0.00  0.00    +0.000 HD
ATOM     19  H   UNL     1      23.898   1.674   6.415  0.00  0.00    +0.000 HD
ATOM     20  H   UNL     1      22.503   3.045   4.889  0.00  0.00    +0.000 HD
ENDBRANCH   7  10
ENDBRANCH   1   7
BRANCH   1  21
ATOM     21  N   UNL     1      19.391  -2.685   8.566  0.00  0.00    +0.000 NA
BRANCH  21  22
ATOM     22  C   UNL     1      19.760  -4.098   8.690  0.00  0.00    +0.000 C 
ATOM     23  H   UNL     1      19.382  -4.683   7.845  0.00  0.00    +0.000 HD
ATOM     24  H   UNL     1      20.849  -4.224   8.659  0.00  0.00    +0.000 HD
ATOM     25  H   UNL     1      19.391  -4.550   9.617  0.00  0.00    +0.000 HD
ENDBRANCH  21  22
BRANCH  21  26
ATOM     26  C   UNL     1      18.107  -2.440   9.254  0.00  0.00    +0.000 C 
ATOM     27  H   UNL     1      17.554  -1.655   8.721  0.00  0.00    +0.000 HD
ATOM     28  H   UNL     1      17.465  -3.324   9.183  0.00  0.00    +0.000 HD
BRANCH  26  29
ATOM     29  C   UNL     1      18.251  -2.046  10.671  0.00  0.00    +0.000 C 
ATOM     30  C   UNL     1      18.372  -1.741  11.828  0.00  0.00    +0.000 C 
ATOM     31  H   UNL     1      18.466  -1.493  12.857  0.00  0.00    +0.000 HD
ENDBRANCH  26  29
ENDBRANCH  21  26
ENDBRANCH   1  21
TORSDOF 7
ENDMDL
MODEL 2
REMARK VINA RESULT:    -4.149      1.757      2.472
REMARK INTER + INTRA:          -6.026
REMARK INTER:                  -5.593
REMARK INTRA:                  -0.434
REMARK UNBOUND:                -0.422
REMARK  Name = 26757
REMARK  7 active torsions:
REMARK  status: ('A' for Active; 'I' for Inactive)
REMARK    1  A    between atoms: N_1  and  C_2
REMARK    2  A    between atoms: N_1  and  C_6
REMARK    3  A    between atoms: N_1  and  C_7
REMARK    4  A    between atoms: C_2  and  C_3
REMARK    5  A    between atoms: C_2  and  C_4
REMARK    6  A    between atoms: C_3  and  C_5
REMARK    7  A    between atoms: C_6  and  C_13
REMARK                            x       y       z     vdW  Elec       q    Type
REMARK                         _______ _______ _______ _____ _____    ______ ____
ROOT
ATOM      1  C   UNL     1      19.632  -2.798   5.704  0.00  0.00    +0.000 C 
ATOM      2  H   UNL     1      18.897  -2.404   4.987  0.00  0.00    +0.000 HD
ENDROOT
BRANCH   1   3
ATOM      3  C   UNL     1      20.845  -3.163   4.828  0.00  0.00    +0.000 C 
ATOM      4  H   UNL     1      20.527  -3.513   3.840  0.00  0.00    +0.000 HD
ATOM      5  H   UNL     1      21.472  -2.281   4.649  0.00  0.00    +0.000 HD
ATOM      6  H   UNL     1      21.470  -3.938   5.278  0.00  0.00    +0.000 HD
ENDBRANCH   1   3
BRANCH   1   7
ATOM      7  C   UNL     1      19.989  -1.584   6.623  0.00  0.00    +0.000 C 
ATOM      8  H   UNL     1      19.049  -1.176   7.016  0.00  0.00    +0.000 HD
ATOM      9  H   UNL     1      20.518  -1.990   7.497  0.00  0.00    +0.000 HD
BRANCH   7  10
ATOM     10  C   UNL     1      20.816  -0.404   6.147  0.00  0.00    +0.000 A 
ATOM     11  C   UNL     1      22.136  -0.146   6.519  0.00  0.00    +0.000 A 
ATOM     12  C   UNL     1      20.181   0.514   5.284  0.00  0.00    +0.000 A 
ATOM     13  C   UNL     1      22.780   1.027   6.100  0.00  0.00    +0.000 A 
ATOM     14  C   UNL     1      20.816   1.686   4.874  0.00  0.00    +0.000 A 
ATOM     15  C   UNL     1      22.112   1.952   5.298  0.00  0.00    +0.000 A 
ATOM     16  H   UNL     1      22.683  -0.832   7.159  0.00  0.00    +0.000 HD
ATOM     17  H   UNL     1      19.164   0.325   4.944  0.00  0.00    +0.000 HD
ATOM     18  H   UNL     1      23.799   1.226   6.417  0.00  0.00    +0.000 HD
ATOM     19  H   UNL     1      20.293   2.393   4.237  0.00  0.00    +0.000 HD
ATOM     20  H   UNL     1      22.600   2.878   5.009  0.00  0.00    +0.000 HD
ENDBRANCH   7  10
ENDBRANCH   1   7
BRANCH   1  21
ATOM     21  N   UNL     1      19.015  -3.964   6.390  0.00  0.00    +0.000 NA
BRANCH  21  22
ATOM     22  C   UNL     1      19.407  -5.254   5.814  0.00  0.00    +0.000 C 
ATOM     23  H   UNL     1      19.689  -5.967   6.594  0.00  0.00    +0.000 HD
ATOM     24  H   UNL     1      18.564  -5.722   5.289  0.00  0.00    +0.000 HD
ATOM     25  H   UNL     1      20.239  -5.163   5.108  0.00  0.00    +0.000 HD
ENDBRANCH  21  22
BRANCH  21  26
ATOM     26  C   UNL     1      17.543  -3.883   6.480  0.00  0.00    +0.000 C 
ATOM     27  H   UNL     1      17.181  -3.092   5.808  0.00  0.00    +0.000 HD
ATOM     28  H   UNL     1      17.088  -4.800   6.093  0.00  0.00    +0.000 HD
BRANCH  26  29
ATOM     29  C   UNL     1      17.039  -3.619   7.844  0.00  0.00    +0.000 C 
ATOM     30  C   UNL     1      16.614  -3.407   8.949  0.00  0.00    +0.000 C 
ATOM     31  H   UNL     1      16.219  -3.205   9.914  0.00  0.00    +0.000 HD
ENDBRANCH  26  29
ENDBRANCH  21  26
ENDBRANCH   1  21
TORSDOF 7
ENDMDL
MODEL 3
REMARK VINA RESULT:    -4.082     10.053     12.651
REMARK INTER + INTRA:          -5.936
REMARK INTER:                  -5.272
REMARK INTRA:                  -0.664
REMARK UNBOUND:                -0.422
REMARK  Name = 26757
REMARK  7 active torsions:
REMARK  status: ('A' for Active; 'I' for Inactive)
REMARK    1  A    between atoms: N_1  and  C_2
REMARK    2  A    between atoms: N_1  and  C_6
REMARK    3  A    between atoms: N_1  and  C_7
REMARK    4  A    between atoms: C_2  and  C_3
REMARK    5  A    between atoms: C_2  and  C_4
REMARK    6  A    between atoms: C_3  and  C_5
REMARK    7  A    between atoms: C_6  and  C_13
REMARK                            x       y       z     vdW  Elec       q    Type
REMARK                         _______ _______ _______ _____ _____    ______ ____
ROOT
ATOM      1  C   UNL     1      11.308  -7.033   7.398  0.00  0.00    +0.000 C 
ATOM      2  H   UNL     1      10.815  -8.017   7.387  0.00  0.00    +0.000 HD
ENDROOT
BRANCH   1   3
ATOM      3  C   UNL     1      12.566  -7.240   6.533  0.00  0.00    +0.000 C 
ATOM      4  H   UNL     1      13.454  -6.827   7.024  0.00  0.00    +0.000 HD
ATOM      5  H   UNL     1      12.767  -8.309   6.393  0.00  0.00    +0.000 HD
ATOM      6  H   UNL     1      12.478  -6.779   5.547  0.00  0.00    +0.000 HD
ENDBRANCH   1   3
BRANCH   1   7
ATOM      7  C   UNL     1      10.313  -6.076   6.665  0.00  0.00    +0.000 C 
ATOM      8  H   UNL     1       9.940  -5.354   7.403  0.00  0.00    +0.000 HD
ATOM      9  H   UNL     1      10.906  -5.484   5.953  0.00  0.00    +0.000 HD
BRANCH   7  10
ATOM     10  C   UNL     1       9.108  -6.575   5.889  0.00  0.00    +0.000 A 
ATOM     11  C   UNL     1       7.801  -6.621   6.378  0.00  0.00    +0.000 A 
ATOM     12  C   UNL     1       9.342  -7.055   4.585  0.00  0.00    +0.000 A 
ATOM     13  C   UNL     1       6.773  -7.192   5.615  0.00  0.00    +0.000 A 
ATOM     14  C   UNL     1       8.324  -7.633   3.827  0.00  0.00    +0.000 A 
ATOM     15  C   UNL     1       7.039  -7.718   4.351  0.00  0.00    +0.000 A 
ATOM     16  H   UNL     1       7.557  -6.240   7.365  0.00  0.00    +0.000 HD
ATOM     17  H   UNL     1      10.342  -7.001   4.157  0.00  0.00    +0.000 HD
ATOM     18  H   UNL     1       5.766  -7.243   6.018  0.00  0.00    +0.000 HD
ATOM     19  H   UNL     1       8.538  -8.026   2.838  0.00  0.00    +0.000 HD
ATOM     20  H   UNL     1       6.249  -8.197   3.780  0.00  0.00    +0.000 HD
ENDBRANCH   7  10
ENDBRANCH   1   7
BRANCH   1  21
ATOM     21  N   UNL     1      11.603  -6.692   8.815  0.00  0.00    +0.000 NA
BRANCH  21  22
ATOM     22  C   UNL     1      13.035  -6.545   9.093  0.00  0.00    +0.000 C 
ATOM     23  H   UNL     1      13.281  -6.897  10.100  0.00  0.00    +0.000 HD
ATOM     24  H   UNL     1      13.632  -7.170   8.417  0.00  0.00    +0.000 HD
ATOM     25  H   UNL     1      13.379  -5.510   8.993  0.00  0.00    +0.000 HD
ENDBRANCH  21  22
BRANCH  21  26
ATOM     26  C   UNL     1      10.998  -7.628   9.784  0.00  0.00    +0.000 C 
ATOM     27  H   UNL     1      11.235  -8.660   9.490  0.00  0.00    +0.000 HD
ATOM     28  H   UNL     1      11.464  -7.509  10.768  0.00  0.00    +0.000 HD
BRANCH  26  29
ATOM     29  C   UNL     1       9.532  -7.493   9.914  0.00  0.00    +0.000 C 
ATOM     30  C   UNL     1       8.340  -7.390  10.033  0.00  0.00    +0.000 C 
ATOM     31  H   UNL     1       7.285  -7.324  10.147  0.00  0.00    +0.000 HD
ENDBRANCH  26  29
ENDBRANCH  21  26
ENDBRANCH   1  21
TORSDOF 7
ENDMDL
MODEL 4
REMARK VINA RESULT:    -4.058      4.858      6.606
REMARK INTER + INTRA:          -5.903
REMARK INTER:                  -5.243
REMARK INTRA:                  -0.661
REMARK UNBOUND:                -0.422
REMARK  Name = 26757
REMARK  7 active torsions:
REMARK  status: ('A' for Active; 'I' for Inactive)
REMARK    1  A    between atoms: N_1  and  C_2
REMARK    2  A    between atoms: N_1  and  C_6
REMARK    3  A    between atoms: N_1  and  C_7
REMARK    4  A    between atoms: C_2  and  C_3
REMARK    5  A    between atoms: C_2  and  C_4
REMARK    6  A    between atoms: C_3  and  C_5
REMARK    7  A    between atoms: C_6  and  C_13
REMARK                            x       y       z     vdW  Elec       q    Type
REMARK                         _______ _______ _______ _____ _____    ______ ____
ROOT
ATOM      1  C   UNL     1      19.706  -2.089  12.600  0.00  0.00    +0.000 C 
ATOM      2  H   UNL     1      19.467  -3.134  12.848  0.00  0.00    +0.000 HD
ENDROOT
BRANCH   1   3
ATOM      3  C   UNL     1      21.083  -2.176  11.917  0.00  0.00    +0.000 C 
ATOM      4  H   UNL     1      20.982  -2.207  10.827  0.00  0.00    +0.000 HD
ATOM      5  H   UNL     1      21.682  -1.285  12.140  0.00  0.00    +0.000 HD
ATOM      6  H   UNL     1      21.653  -3.055  12.231  0.00  0.00    +0.000 HD
ENDBRANCH   1   3
BRANCH   1   7
ATOM      7  C   UNL     1      18.622  -1.666  11.556  0.00  0.00    +0.000 C 
ATOM      8  H   UNL     1      17.841  -1.111  12.091  0.00  0.00    +0.000 HD
ATOM      9  H   UNL     1      19.094  -0.932  10.887  0.00  0.00    +0.000 HD
BRANCH   7  10
ATOM     10  C   UNL     1      17.915  -2.660  10.652  0.00  0.00    +0.000 A 
ATOM     11  C   UNL     1      17.451  -2.385   9.364  0.00  0.00    +0.000 A 
ATOM     12  C   UNL     1      17.689  -3.950  11.175  0.00  0.00    +0.000 A 
ATOM     13  C   UNL     1      16.722  -3.345   8.649  0.00  0.00    +0.000 A 
ATOM     14  C   UNL     1      16.956  -4.903  10.469  0.00  0.00    +0.000 A 
ATOM     15  C   UNL     1      16.456  -4.593   9.209  0.00  0.00    +0.000 A 
ATOM     16  H   UNL     1      17.621  -1.418   8.901  0.00  0.00    +0.000 HD
ATOM     17  H   UNL     1      18.070  -4.211  12.161  0.00  0.00    +0.000 HD
ATOM     18  H   UNL     1      16.347  -3.109   7.657  0.00  0.00    +0.000 HD
ATOM     19  H   UNL     1      16.766  -5.878  10.908  0.00  0.00    +0.000 HD
ATOM     20  H   UNL     1      15.856  -5.320   8.668  0.00  0.00    +0.000 HD
ENDBRANCH   7  10
ENDBRANCH   1   7
BRANCH   1  21
ATOM     21  N   UNL     1      19.713  -1.314  13.869  0.00  0.00    +0.000 NA
BRANCH  21  22
ATOM     22  C   UNL     1      20.806  -1.685  14.773  0.00  0.00    +0.000 C 
ATOM     23  H   UNL     1      21.364  -0.803  15.104  0.00  0.00    +0.000 HD
ATOM     24  H   UNL     1      20.417  -2.139  15.693  0.00  0.00    +0.000 HD
ATOM     25  H   UNL     1      21.509  -2.390  14.316  0.00  0.00    +0.000 HD
ENDBRANCH  21  22
BRANCH  21  26
ATOM     26  C   UNL     1      18.427  -1.359  14.594  0.00  0.00    +0.000 C 
ATOM     27  H   UNL     1      18.469  -0.674  15.452  0.00  0.00    +0.000 HD
ATOM     28  H   UNL     1      17.623  -0.961  13.966  0.00  0.00    +0.000 HD
BRANCH  26  29
ATOM     29  C   UNL     1      18.056  -2.706  15.075  0.00  0.00    +0.000 C 
ATOM     30  C   UNL     1      17.761  -3.809  15.454  0.00  0.00    +0.000 C 
ATOM     31  H   UNL     1      17.496  -4.790  15.764  0.00  0.00    +0.000 HD
ENDBRANCH  26  29
ENDBRANCH  21  26
ENDBRANCH   1  21
TORSDOF 7
ENDMDL
MODEL 5
REMARK VINA RESULT:    -3.849      6.644      7.896
REMARK INTER + INTRA:          -5.622
REMARK INTER:                  -4.589
REMARK INTRA:                  -1.032
REMARK UNBOUND:                -0.422
REMARK  Name = 26757
REMARK  7 active torsions:
REMARK  status: ('A' for Active; 'I' for Inactive)
REMARK    1  A    between atoms: N_1  and  C_2
REMARK    2  A    between atoms: N_1  and  C_6
REMARK    3  A    between atoms: N_1  and  C_7
REMARK    4  A    between atoms: C_2  and  C_3
REMARK    5  A    between atoms: C_2  and  C_4
REMARK    6  A    between atoms: C_3  and  C_5
REMARK    7  A    between atoms: C_6  and  C_13
REMARK                            x       y       z     vdW  Elec       q    Type
REMARK                         _______ _______ _______ _____ _____    ______ ____
ROOT
ATOM      1  C   UNL     1      24.337   0.594  10.171  0.00  0.00    +0.000 C 
ATOM      2  H   UNL     1      23.401   0.636  10.747  0.00  0.00    +0.000 HD
ENDROOT
BRANCH   1   3
ATOM      3  C   UNL     1      23.880   0.206   8.751  0.00  0.00    +0.000 C 
ATOM      4  H   UNL     1      24.352   0.845   7.997  0.00  0.00    +0.000 HD
ATOM      5  H   UNL     1      24.187  -0.819   8.513  0.00  0.00    +0.000 HD
ATOM      6  H   UNL     1      22.797   0.275   8.625  0.00  0.00    +0.000 HD
ENDBRANCH   1   3
BRANCH   1   7
ATOM      7  C   UNL     1      24.876   2.061  10.172  0.00  0.00    +0.000 C 
ATOM      8  H   UNL     1      25.192   2.301   9.148  0.00  0.00    +0.000 HD
ATOM      9  H   UNL     1      24.016   2.717  10.372  0.00  0.00    +0.000 HD
BRANCH   7  10
ATOM     10  C   UNL     1      25.983   2.533  11.097  0.00  0.00    +0.000 A 
ATOM     11  C   UNL     1      27.346   2.516  10.792  0.00  0.00    +0.000 A 
ATOM     12  C   UNL     1      25.597   2.995  12.371  0.00  0.00    +0.000 A 
ATOM     13  C   UNL     1      28.296   2.882  11.755  0.00  0.00    +0.000 A 
ATOM     14  C   UNL     1      26.541   3.351  13.334  0.00  0.00    +0.000 A 
ATOM     15  C   UNL     1      27.895   3.277  13.031  0.00  0.00    +0.000 A 
ATOM     16  H   UNL     1      27.699   2.195   9.817  0.00  0.00    +0.000 HD
ATOM     17  H   UNL     1      24.541   3.057  12.629  0.00  0.00    +0.000 HD
ATOM     18  H   UNL     1      29.354   2.841  11.512  0.00  0.00    +0.000 HD
ATOM     19  H   UNL     1      26.218   3.672  14.320  0.00  0.00    +0.000 HD
ATOM     20  H   UNL     1      28.636   3.521  13.786  0.00  0.00    +0.000 HD
ENDBRANCH   7  10
ENDBRANCH   1   7
BRANCH   1  21
ATOM     21  N   UNL     1      25.218  -0.416  10.814  0.00  0.00    +0.000 NA
BRANCH  21  22
ATOM     22  C   UNL     1      25.356  -1.650  10.036  0.00  0.00    +0.000 C 
ATOM     23  H   UNL     1      24.421  -2.219  10.024  0.00  0.00    +0.000 HD
ATOM     24  H   UNL     1      25.568  -1.428   8.982  0.00  0.00    +0.000 HD
ATOM     25  H   UNL     1      26.153  -2.299  10.413  0.00  0.00    +0.000 HD
ENDBRANCH  21  22
BRANCH  21  26
ATOM     26  C   UNL     1      24.828  -0.740  12.202  0.00  0.00    +0.000 C 
ATOM     27  H   UNL     1      23.946  -0.147  12.478  0.00  0.00    +0.000 HD
ATOM     28  H   UNL     1      24.491  -1.780  12.268  0.00  0.00    +0.000 HD
BRANCH  26  29
ATOM     29  C   UNL     1      25.895  -0.504  13.196  0.00  0.00    +0.000 C 
ATOM     30  C   UNL     1      26.753  -0.307  14.016  0.00  0.00    +0.000 C 
ATOM     31  H   UNL     1      27.498  -0.111  14.747  0.00  0.00    +0.000 HD
ENDBRANCH  26  29
ENDBRANCH  21  26
ENDBRANCH   1  21
TORSDOF 7
ENDMDL
MODEL 6
REMARK VINA RESULT:    -3.827      2.364      6.339
REMARK INTER + INTRA:          -5.592
REMARK INTER:                  -5.212
REMARK INTRA:                  -0.380
REMARK UNBOUND:                -0.422
REMARK  Name = 26757
REMARK  7 active torsions:
REMARK  status: ('A' for Active; 'I' for Inactive)
REMARK    1  A    between atoms: N_1  and  C_2
REMARK    2  A    between atoms: N_1  and  C_6
REMARK    3  A    between atoms: N_1  and  C_7
REMARK    4  A    between atoms: C_2  and  C_3
REMARK    5  A    between atoms: C_2  and  C_4
REMARK    6  A    between atoms: C_3  and  C_5
REMARK    7  A    between atoms: C_6  and  C_13
REMARK                            x       y       z     vdW  Elec       q    Type
REMARK                         _______ _______ _______ _____ _____    ______ ____
ROOT
ATOM      1  C   UNL     1      17.710  -3.466   8.321  0.00  0.00    +0.000 C 
ATOM      2  H   UNL     1      18.126  -4.402   8.723  0.00  0.00    +0.000 HD
ENDROOT
BRANCH   1   3
ATOM      3  C   UNL     1      16.187  -3.697   8.346  0.00  0.00    +0.000 C 
ATOM      4  H   UNL     1      15.697  -3.188   7.509  0.00  0.00    +0.000 HD
ATOM      5  H   UNL     1      15.956  -4.763   8.227  0.00  0.00    +0.000 HD
ATOM      6  H   UNL     1      15.725  -3.350   9.273  0.00  0.00    +0.000 HD
ENDBRANCH   1   3
BRANCH   1   7
ATOM      7  C   UNL     1      18.096  -2.372   9.369  0.00  0.00    +0.000 C 
ATOM      8  H   UNL     1      19.006  -1.874   9.011  0.00  0.00    +0.000 HD
ATOM      9  H   UNL     1      17.311  -1.603   9.332  0.00  0.00    +0.000 HD
BRANCH   7  10
ATOM     10  C   UNL     1      18.311  -2.677  10.840  0.00  0.00    +0.000 A 
ATOM     11  C   UNL     1      18.359  -3.957  11.396  0.00  0.00    +0.000 A 
ATOM     12  C   UNL     1      18.443  -1.574  11.708  0.00  0.00    +0.000 A 
ATOM     13  C   UNL     1      18.464  -4.128  12.784  0.00  0.00    +0.000 A 
ATOM     14  C   UNL     1      18.538  -1.741  13.089  0.00  0.00    +0.000 A 
ATOM     15  C   UNL     1      18.530  -3.022  13.630  0.00  0.00    +0.000 A 
ATOM     16  H   UNL     1      18.290  -4.843  10.773  0.00  0.00    +0.000 HD
ATOM     17  H   UNL     1      18.447  -0.563  11.304  0.00  0.00    +0.000 HD
ATOM     18  H   UNL     1      18.476  -5.129  13.204  0.00  0.00    +0.000 HD
ATOM     19  H   UNL     1      18.604  -0.874  13.739  0.00  0.00    +0.000 HD
ATOM     20  H   UNL     1      18.571  -3.158  14.707  0.00  0.00    +0.000 HD
ENDBRANCH   7  10
ENDBRANCH   1   7
BRANCH   1  21
ATOM     21  N   UNL     1      18.266  -3.274   6.955  0.00  0.00    +0.000 NA
BRANCH  21  22
ATOM     22  C   UNL     1      18.598  -4.531   6.279  0.00  0.00    +0.000 C 
ATOM     23  H   UNL     1      19.553  -4.931   6.632  0.00  0.00    +0.000 HD
ATOM     24  H   UNL     1      17.859  -5.309   6.512  0.00  0.00    +0.000 HD
ATOM     25  H   UNL     1      18.646  -4.423   5.190  0.00  0.00    +0.000 HD
ENDBRANCH  21  22
BRANCH  21  26
ATOM     26  C   UNL     1      19.427  -2.362   6.915  0.00  0.00    +0.000 C 
ATOM     27  H   UNL     1      19.306  -1.586   7.684  0.00  0.00    +0.000 HD
ATOM     28  H   UNL     1      20.338  -2.895   7.204  0.00  0.00    +0.000 HD
BRANCH  26  29
ATOM     29  C   UNL     1      19.632  -1.709   5.605  0.00  0.00    +0.000 C 
ATOM     30  C   UNL     1      19.802  -1.192   4.533  0.00  0.00    +0.000 C 
ATOM     31  H   UNL     1      19.974  -0.750   3.582  0.00  0.00    +0.000 HD
ENDBRANCH  26  29
ENDBRANCH  21  26
ENDBRANCH   1  21
TORSDOF 7
ENDMDL
MODEL 7
REMARK VINA RESULT:    -3.755      1.712      5.803
REMARK INTER + INTRA:          -5.495
REMARK INTER:                  -5.110
REMARK INTRA:                  -0.385
REMARK UNBOUND:                -0.422
REMARK  Name = 26757
REMARK  7 active torsions:
REMARK  status: ('A' for Active; 'I' for Inactive)
REMARK    1  A    between atoms: N_1  and  C_2
REMARK    2  A    between atoms: N_1  and  C_6
REMARK    3  A    between atoms: N_1  and  C_7
REMARK    4  A    between atoms: C_2  and  C_3
REMARK    5  A    between atoms: C_2  and  C_4
REMARK    6  A    between atoms: C_3  and  C_5
REMARK    7  A    between atoms: C_6  and  C_13
REMARK                            x       y       z     vdW  Elec       q    Type
REMARK                         _______ _______ _______ _____ _____    ______ ____
ROOT
ATOM      1  C   UNL     1      21.036  -1.630   6.452  0.00  0.00    +0.000 C 
ATOM      2  H   UNL     1      21.103  -0.795   7.164  0.00  0.00    +0.000 HD
ENDROOT
BRANCH   1   3
ATOM      3  C   UNL     1      22.499  -1.893   6.050  0.00  0.00    +0.000 C 
ATOM      4  H   UNL     1      22.585  -2.800   5.442  0.00  0.00    +0.000 HD
ATOM      5  H   UNL     1      22.882  -1.075   5.427  0.00  0.00    +0.000 HD
ATOM      6  H   UNL     1      23.159  -1.999   6.914  0.00  0.00    +0.000 HD
ENDBRANCH   1   3
BRANCH   1   7
ATOM      7  C   UNL     1      20.493  -2.832   7.292  0.00  0.00    +0.000 C 
ATOM      8  H   UNL     1      20.802  -3.757   6.789  0.00  0.00    +0.000 HD
ATOM      9  H   UNL     1      21.038  -2.825   8.247  0.00  0.00    +0.000 HD
BRANCH   7  10
ATOM     10  C   UNL     1      19.027  -2.994   7.649  0.00  0.00    +0.000 A 
ATOM     11  C   UNL     1      18.430  -2.530   8.823  0.00  0.00    +0.000 A 
ATOM     12  C   UNL     1      18.220  -3.695   6.730  0.00  0.00    +0.000 A 
ATOM     13  C   UNL     1      17.087  -2.818   9.103  0.00  0.00    +0.000 A 
ATOM     14  C   UNL     1      16.886  -3.992   7.011  0.00  0.00    +0.000 A 
ATOM     15  C   UNL     1      16.324  -3.567   8.209  0.00  0.00    +0.000 A 
ATOM     16  H   UNL     1      18.997  -1.961   9.553  0.00  0.00    +0.000 HD
ATOM     17  H   UNL     1      18.643  -4.039   5.788  0.00  0.00    +0.000 HD
ATOM     18  H   UNL     1      16.643  -2.470  10.031  0.00  0.00    +0.000 HD
ATOM     19  H   UNL     1      16.295  -4.563   6.301  0.00  0.00    +0.000 HD
ATOM     20  H   UNL     1      15.295  -3.822   8.448  0.00  0.00    +0.000 HD
ENDBRANCH   7  10
ENDBRANCH   1   7
BRANCH   1  21
ATOM     21  N   UNL     1      20.172  -1.193   5.322  0.00  0.00    +0.000 NA
BRANCH  21  22
ATOM     22  C   UNL     1      20.718  -1.534   4.006  0.00  0.00    +0.000 C 
ATOM     23  H   UNL     1      20.531  -0.736   3.280  0.00  0.00    +0.000 HD
ATOM     24  H   UNL     1      21.810  -1.632   4.047  0.00  0.00    +0.000 HD
ATOM     25  H   UNL     1      20.308  -2.469   3.609  0.00  0.00    +0.000 HD
ENDBRANCH  21  22
BRANCH  21  26
ATOM     26  C   UNL     1      19.829   0.243   5.366  0.00  0.00    +0.000 C 
ATOM     27  H   UNL     1      19.067   0.457   4.604  0.00  0.00    +0.000 HD
ATOM     28  H   UNL     1      19.342   0.487   6.316  0.00  0.00    +0.000 HD
BRANCH  26  29
ATOM     29  C   UNL     1      20.982   1.143   5.157  0.00  0.00    +0.000 C 
ATOM     30  C   UNL     1      21.919   1.881   5.000  0.00  0.00    +0.000 C 
ATOM     31  H   UNL     1      22.732   2.553   4.873  0.00  0.00    +0.000 HD
ENDBRANCH  26  29
ENDBRANCH  21  26
ENDBRANCH   1  21
TORSDOF 7
ENDMDL
MODEL 8
REMARK VINA RESULT:    -3.751      1.645      2.166
REMARK INTER + INTRA:          -5.489
REMARK INTER:                  -4.925
REMARK INTRA:                  -0.563
REMARK UNBOUND:                -0.422
REMARK  Name = 26757
REMARK  7 active torsions:
REMARK  status: ('A' for Active; 'I' for Inactive)
REMARK    1  A    between atoms: N_1  and  C_2
REMARK    2  A    between atoms: N_1  and  C_6
REMARK    3  A    between atoms: N_1  and  C_7
REMARK    4  A    between atoms: C_2  and  C_3
REMARK    5  A    between atoms: C_2  and  C_4
REMARK    6  A    between atoms: C_3  and  C_5
REMARK    7  A    between atoms: C_6  and  C_13
REMARK                            x       y       z     vdW  Elec       q    Type
REMARK                         _______ _______ _______ _____ _____    ______ ____
ROOT
ATOM      1  C   UNL     1      19.695  -3.033   6.418  0.00  0.00    +0.000 C 
ATOM      2  H   UNL     1      18.737  -3.361   6.848  0.00  0.00    +0.000 HD
ENDROOT
BRANCH   1   3
ATOM      3  C   UNL     1      20.262  -4.308   5.765  0.00  0.00    +0.000 C 
ATOM      4  H   UNL     1      20.957  -4.061   4.956  0.00  0.00    +0.000 HD
ATOM      5  H   UNL     1      20.839  -4.891   6.492  0.00  0.00    +0.000 HD
ATOM      6  H   UNL     1      19.480  -4.953   5.356  0.00  0.00    +0.000 HD
ENDBRANCH   1   3
BRANCH   1   7
ATOM      7  C   UNL     1      19.307  -1.999   5.313  0.00  0.00    +0.000 C 
ATOM      8  H   UNL     1      18.978  -2.561   4.430  0.00  0.00    +0.000 HD
ATOM      9  H   UNL     1      18.412  -1.470   5.671  0.00  0.00    +0.000 HD
BRANCH   7  10
ATOM     10  C   UNL     1      20.258  -0.923   4.820  0.00  0.00    +0.000 A 
ATOM     11  C   UNL     1      21.317  -1.131   3.935  0.00  0.00    +0.000 A 
ATOM     12  C   UNL     1      20.064   0.380   5.323  0.00  0.00    +0.000 A 
ATOM     13  C   UNL     1      22.198  -0.087   3.618  0.00  0.00    +0.000 A 
ATOM     14  C   UNL     1      20.944   1.418   5.017  0.00  0.00    +0.000 A 
ATOM     15  C   UNL     1      22.025   1.178   4.177  0.00  0.00    +0.000 A 
ATOM     16  H   UNL     1      21.497  -2.107   3.495  0.00  0.00    +0.000 HD
ATOM     17  H   UNL     1      19.225   0.587   5.986  0.00  0.00    +0.000 HD
ATOM     18  H   UNL     1      23.032  -0.271   2.947  0.00  0.00    +0.000 HD
ATOM     19  H   UNL     1      20.792   2.404   5.445  0.00  0.00    +0.000 HD
ATOM     20  H   UNL     1      22.733   1.973   3.961  0.00  0.00    +0.000 HD
ENDBRANCH   7  10
ENDBRANCH   1   7
BRANCH   1  21
ATOM     21  N   UNL     1      20.532  -2.506   7.529  0.00  0.00    +0.000 NA
BRANCH  21  22
ATOM     22  C   UNL     1      21.947  -2.868   7.416  0.00  0.00    +0.000 C 
ATOM     23  H   UNL     1      22.123  -3.515   6.551  0.00  0.00    +0.000 HD
ATOM     24  H   UNL     1      22.567  -1.980   7.239  0.00  0.00    +0.000 HD
ATOM     25  H   UNL     1      22.325  -3.374   8.311  0.00  0.00    +0.000 HD
ENDBRANCH  21  22
BRANCH  21  26
ATOM     26  C   UNL     1      20.027  -2.867   8.869  0.00  0.00    +0.000 C 
ATOM     27  H   UNL     1      20.354  -3.886   9.117  0.00  0.00    +0.000 HD
ATOM     28  H   UNL     1      20.493  -2.236   9.633  0.00  0.00    +0.000 HD
BRANCH  26  29
ATOM     29  C   UNL     1      18.557  -2.792   8.997  0.00  0.00    +0.000 C 
ATOM     30  C   UNL     1      17.360  -2.744   9.111  0.00  0.00    +0.000 C 
ATOM     31  H   UNL     1      16.302  -2.728   9.207  0.00  0.00    +0.000 HD
ENDBRANCH  26  29
ENDBRANCH  21  26
ENDBRANCH   1  21
TORSDOF 7
ENDMDL
MODEL 9
REMARK VINA RESULT:    -3.652      4.791      8.857
REMARK INTER + INTRA:          -5.355
REMARK INTER:                  -4.765
REMARK INTRA:                  -0.590
REMARK UNBOUND:                -0.422
REMARK  Name = 26757
REMARK  7 active torsions:
REMARK  status: ('A' for Active; 'I' for Inactive)
REMARK    1  A    between atoms: N_1  and  C_2
REMARK    2  A    between atoms: N_1  and  C_6
REMARK    3  A    between atoms: N_1  and  C_7
REMARK    4  A    between atoms: C_2  and  C_3
REMARK    5  A    between atoms: C_2  and  C_4
REMARK    6  A    between atoms: C_3  and  C_5
REMARK    7  A    between atoms: C_6  and  C_13
REMARK                            x       y       z     vdW  Elec       q    Type
REMARK                         _______ _______ _______ _____ _____    ______ ____
ROOT
ATOM      1  C   UNL     1      18.850  -1.852  12.934  0.00  0.00    +0.000 C 
ATOM      2  H   UNL     1      18.101  -1.495  12.212  0.00  0.00    +0.000 HD
ENDROOT
BRANCH   1   3
ATOM      3  C   UNL     1      20.031  -0.880  12.752  0.00  0.00    +0.000 C 
ATOM      4  H   UNL     1      19.864  -0.211  11.901  0.00  0.00    +0.000 HD
ATOM      5  H   UNL     1      20.138  -0.231  13.629  0.00  0.00    +0.000 HD
ATOM      6  H   UNL     1      20.981  -1.398  12.595  0.00  0.00    +0.000 HD
ENDBRANCH   1   3
BRANCH   1   7
ATOM      7  C   UNL     1      18.195  -1.631  14.336  0.00  0.00    +0.000 C 
ATOM      8  H   UNL     1      18.503  -0.641  14.697  0.00  0.00    +0.000 HD
ATOM      9  H   UNL     1      17.110  -1.556  14.173  0.00  0.00    +0.000 HD
BRANCH   7  10
ATOM     10  C   UNL     1      18.377  -2.597  15.493  0.00  0.00    +0.000 A 
ATOM     11  C   UNL     1      17.507  -3.641  15.812  0.00  0.00    +0.000 A 
ATOM     12  C   UNL     1      19.499  -2.396  16.322  0.00  0.00    +0.000 A 
ATOM     13  C   UNL     1      17.714  -4.416  16.962  0.00  0.00    +0.000 A 
ATOM     14  C   UNL     1      19.702  -3.159  17.472  0.00  0.00    +0.000 A 
ATOM     15  C   UNL     1      18.796  -4.160  17.802  0.00  0.00    +0.000 A 
ATOM     16  H   UNL     1      16.641  -3.859  15.194  0.00  0.00    +0.000 HD
ATOM     17  H   UNL     1      20.218  -1.614  16.083  0.00  0.00    +0.000 HD
ATOM     18  H   UNL     1      17.015  -5.210  17.210  0.00  0.00    +0.000 HD
ATOM     19  H   UNL     1      20.556  -2.962  18.113  0.00  0.00    +0.000 HD
ATOM     20  H   UNL     1      18.930  -4.736  18.713  0.00  0.00    +0.000 HD
ENDBRANCH   7  10
ENDBRANCH   1   7
BRANCH   1  21
ATOM     21  N   UNL     1      19.174  -3.262  12.590  0.00  0.00    +0.000 NA
BRANCH  21  22
ATOM     22  C   UNL     1      20.539  -3.440  12.086  0.00  0.00    +0.000 C 
ATOM     23  H   UNL     1      20.541  -3.943  11.115  0.00  0.00    +0.000 HD
ATOM     24  H   UNL     1      21.021  -2.470  11.907  0.00  0.00    +0.000 HD
ATOM     25  H   UNL     1      21.171  -4.011  12.775  0.00  0.00    +0.000 HD
ENDBRANCH  21  22
BRANCH  21  26
ATOM     26  C   UNL     1      18.210  -3.876  11.654  0.00  0.00    +0.000 C 
ATOM     27  H   UNL     1      18.592  -4.854  11.331  0.00  0.00    +0.000 HD
ATOM     28  H   UNL     1      17.273  -4.104  12.172  0.00  0.00    +0.000 HD
BRANCH  26  29
ATOM     29  C   UNL     1      17.927  -3.054  10.460  0.00  0.00    +0.000 C 
ATOM     30  C   UNL     1      17.681  -2.389   9.488  0.00  0.00    +0.000 C 
ATOM     31  H   UNL     1      17.449  -1.821   8.620  0.00  0.00    +0.000 HD
ENDBRANCH  26  29
ENDBRANCH  21  26
ENDBRANCH   1  21
TORSDOF 7
ENDMDL
MODEL 10
REMARK VINA RESULT:    -3.646      1.762      2.557
REMARK INTER + INTRA:          -5.347
REMARK INTER:                  -4.925
REMARK INTRA:                  -0.422
REMARK UNBOUND:                -0.422
REMARK  Name = 26757
REMARK  7 active torsions:
REMARK  status: ('A' for Active; 'I' for Inactive)
REMARK    1  A    between atoms: N_1  and  C_2
REMARK    2  A    between atoms: N_1  and  C_6
REMARK    3  A    between atoms: N_1  and  C_7
REMARK    4  A    between atoms: C_2  and  C_3
REMARK    5  A    between atoms: C_2  and  C_4
REMARK    6  A    between atoms: C_3  and  C_5
REMARK    7  A    between atoms: C_6  and  C_13
REMARK                            x       y       z     vdW  Elec       q    Type
REMARK                         _______ _______ _______ _____ _____    ______ ____
ROOT
ATOM      1  C   UNL     1      18.863  -3.286   7.636  0.00  0.00    +0.000 C 
ATOM      2  H   UNL     1      18.633  -4.361   7.651  0.00  0.00    +0.000 HD
ENDROOT
BRANCH   1   3
ATOM      3  C   UNL     1      20.276  -3.202   8.245  0.00  0.00    +0.000 C 
ATOM      4  H   UNL     1      20.252  -3.389   9.324  0.00  0.00    +0.000 HD
ATOM      5  H   UNL     1      20.927  -3.975   7.819  0.00  0.00    +0.000 HD
ATOM      6  H   UNL     1      20.748  -2.231   8.078  0.00  0.00    +0.000 HD
ENDBRANCH   1   3
BRANCH   1   7
ATOM      7  C   UNL     1      18.917  -2.907   6.120  0.00  0.00    +0.000 C 
ATOM      8  H   UNL     1      19.149  -3.819   5.556  0.00  0.00    +0.000 HD
ATOM      9  H   UNL     1      17.894  -2.634   5.823  0.00  0.00    +0.000 HD
BRANCH   7  10
ATOM     10  C   UNL     1      19.815  -1.811   5.575  0.00  0.00    +0.000 A 
ATOM     11  C   UNL     1      19.828  -0.488   6.020  0.00  0.00    +0.000 A 
ATOM     12  C   UNL     1      20.678  -2.161   4.517  0.00  0.00    +0.000 A 
ATOM     13  C   UNL     1      20.627   0.472   5.382  0.00  0.00    +0.000 A 
ATOM     14  C   UNL     1      21.466  -1.206   3.874  0.00  0.00    +0.000 A 
ATOM     15  C   UNL     1      21.426   0.117   4.296  0.00  0.00    +0.000 A 
ATOM     16  H   UNL     1      19.204  -0.168   6.849  0.00  0.00    +0.000 HD
ATOM     17  H   UNL     1      20.721  -3.191   4.169  0.00  0.00    +0.000 HD
ATOM     18  H   UNL     1      20.609   1.502   5.724  0.00  0.00    +0.000 HD
ATOM     19  H   UNL     1      22.097  -1.495   3.038  0.00  0.00    +0.000 HD
ATOM     20  H   UNL     1      22.013   0.871   3.779  0.00  0.00    +0.000 HD
ENDBRANCH   7  10
ENDBRANCH   1   7
BRANCH   1  21
ATOM     21  N   UNL     1      17.822  -2.589   8.437  0.00  0.00    +0.000 NA
BRANCH  21  22
ATOM     22  C   UNL     1      18.304  -2.125   9.741  0.00  0.00    +0.000 C 
ATOM     23  H   UNL     1      18.676  -1.097   9.684  0.00  0.00    +0.000 HD
ATOM     24  H   UNL     1      17.487  -2.093  10.473  0.00  0.00    +0.000 HD
ATOM     25  H   UNL     1      19.099  -2.760  10.147  0.00  0.00    +0.000 HD
ENDBRANCH  21  22
BRANCH  21  26
ATOM     26  C   UNL     1      16.587  -3.380   8.612  0.00  0.00    +0.000 C 
ATOM     27  H   UNL     1      15.755  -2.704   8.855  0.00  0.00    +0.000 HD
ATOM     28  H   UNL     1      16.296  -3.842   7.663  0.00  0.00    +0.000 HD
BRANCH  26  29
ATOM     29  C   UNL     1      16.682  -4.418   9.659  0.00  0.00    +0.000 C 
ATOM     30  C   UNL     1      16.761  -5.275  10.499  0.00  0.00    +0.000 C 
ATOM     31  H   UNL     1      16.816  -6.047  11.227  0.00  0.00    +0.000 HD
ENDBRANCH  26  29
ENDBRANCH  21  26
ENDBRANCH   1  21
TORSDOF 7
ENDMDL
