MODEL 1
REMARK VINA RESULT:    -4.445      0.000      0.000
REMARK INTER + INTRA:          -4.760
REMARK INTER:                  -4.622
REMARK INTRA:                  -0.138
REMARK UNBOUND:                -0.055
REMARK  Name = 10281
REMARK  4 active torsions:
REMARK  status: ('A' for Active; 'I' for Inactive)
REMARK    1  A    between atoms: C_3  and  C_4
REMARK    2  A    between atoms: C_3  and  C_5
REMARK    3  A    between atoms: C_3  and  C_6
REMARK    4  A    between atoms: C_9  and  C_12
REMARK                            x       y       z     vdW  Elec       q    Type
REMARK                         _______ _______ _______ _____ _____    ______ ____
ROOT
ATOM      1  O   UNL     1       8.435   6.812  22.043  0.00  0.00    +0.000 OA
ATOM      2  O   UNL     1       6.677   1.807  22.488  0.00  0.00    +0.000 OA
ATOM      3  C   UNL     1       7.976   4.977  23.478  0.00  0.00    +0.000 C 
ATOM      4  C   UNL     1       8.033   5.659  22.160  0.00  0.00    +0.000 C 
ATOM      5  C   UNL     1       7.529   3.719  23.557  0.00  0.00    +0.000 C 
ATOM      6  C   UNL     1       7.138   3.642  21.052  0.00  0.00    +0.000 C 
ATOM      7  C   UNL     1       7.080   2.960  22.371  0.00  0.00    +0.000 C 
ATOM      8  C   UNL     1       7.585   4.901  20.973  0.00  0.00    +0.000 C 
ATOM      9  C   UNL     1       6.682   2.866  19.856  0.00  0.00    +0.000 C 
ENDROOT
BRANCH   3  10
ATOM     10  C   UNL     1       8.433   5.753  24.674  0.00  0.00    +0.000 C 
ATOM     11  C   UNL     1       7.238   6.374  25.392  0.00  0.00    +0.000 C 
ATOM     12  C   UNL     1       9.236   4.867  25.622  0.00  0.00    +0.000 C 
ENDBRANCH   3  10
TORSDOF 1
ENDMDL
MODEL 2
REMARK VINA RESULT:    -4.072     17.424     19.353
REMARK INTER + INTRA:          -4.365
REMARK INTER:                  -4.266
REMARK INTRA:                  -0.099
REMARK UNBOUND:                -0.055
REMARK  Name = 10281
REMARK  4 active torsions:
REMARK  status: ('A' for Active; 'I' for Inactive)
REMARK    1  A    between atoms: C_3  and  C_4
REMARK    2  A    between atoms: C_3  and  C_5
REMARK    3  A    between atoms: C_3  and  C_6
REMARK    4  A    between atoms: C_9  and  C_12
REMARK                            x       y       z     vdW  Elec       q    Type
REMARK                         _______ _______ _______ _____ _____    ______ ____
ROOT
ATOM      1  O   UNL     1      12.271  -6.850   8.271  0.00  0.00    +0.000 OA
ATOM      2  O   UNL     1       7.528  -6.864   5.852  0.00  0.00    +0.000 OA
ATOM      3  C   UNL     1       9.930  -7.200   8.467  0.00  0.00    +0.000 C 
ATOM      4  C   UNL     1      11.172  -6.858   7.726  0.00  0.00    +0.000 C 
ATOM      5  C   UNL     1       8.753  -7.194   7.830  0.00  0.00    +0.000 C 
ATOM      6  C   UNL     1       9.869  -6.516   5.656  0.00  0.00    +0.000 C 
ATOM      7  C   UNL     1       8.628  -6.858   6.397  0.00  0.00    +0.000 C 
ATOM      8  C   UNL     1      11.047  -6.521   6.292  0.00  0.00    +0.000 C 
ATOM      9  C   UNL     1       9.733  -6.177   4.205  0.00  0.00    +0.000 C 
ENDROOT
BRANCH   3  10
ATOM     10  C   UNL     1      10.067  -7.541   9.918  0.00  0.00    +0.000 C 
ATOM     11  C   UNL     1       8.791  -7.175  10.672  0.00  0.00    +0.000 C 
ATOM     12  C   UNL     1      10.399  -9.019  10.099  0.00  0.00    +0.000 C 
ENDBRANCH   3  10
TORSDOF 1
ENDMDL
MODEL 3
REMARK VINA RESULT:    -3.950     18.046     18.956
REMARK INTER + INTRA:          -4.237
REMARK INTER:                  -4.248
REMARK INTRA:                   0.012
REMARK UNBOUND:                -0.055
REMARK  Name = 10281
REMARK  4 active torsions:
REMARK  status: ('A' for Active; 'I' for Inactive)
REMARK    1  A    between atoms: C_3  and  C_4
REMARK    2  A    between atoms: C_3  and  C_5
REMARK    3  A    between atoms: C_3  and  C_6
REMARK    4  A    between atoms: C_9  and  C_12
REMARK                            x       y       z     vdW  Elec       q    Type
REMARK                         _______ _______ _______ _____ _____    ______ ____
ROOT
ATOM      1  O   UNL     1       9.099  -7.794  10.469  0.00  0.00    +0.000 OA
ATOM      2  O   UNL     1       9.964  -6.070   5.507  0.00  0.00    +0.000 OA
ATOM      3  C   UNL     1      10.682  -7.061   8.856  0.00  0.00    +0.000 C 
ATOM      4  C   UNL     1       9.313  -7.395   9.328  0.00  0.00    +0.000 C 
ATOM      5  C   UNL     1      10.866  -6.630   7.603  0.00  0.00    +0.000 C 
ATOM      6  C   UNL     1       8.382  -6.801   7.120  0.00  0.00    +0.000 C 
ATOM      7  C   UNL     1       9.750  -6.467   6.648  0.00  0.00    +0.000 C 
ATOM      8  C   UNL     1       8.197  -7.233   8.373  0.00  0.00    +0.000 C 
ATOM      9  C   UNL     1       7.258  -6.633   6.145  0.00  0.00    +0.000 C 
ENDROOT
BRANCH   3  10
ATOM     10  C   UNL     1      11.805  -7.228   9.831  0.00  0.00    +0.000 C 
ATOM     11  C   UNL     1      12.133  -8.707  10.014  0.00  0.00    +0.000 C 
ATOM     12  C   UNL     1      13.037  -6.450   9.378  0.00  0.00    +0.000 C 
ENDBRANCH   3  10
TORSDOF 1
ENDMDL
MODEL 4
REMARK VINA RESULT:    -3.916     17.437     19.844
REMARK INTER + INTRA:          -4.201
REMARK INTER:                  -4.063
REMARK INTRA:                  -0.138
REMARK UNBOUND:                -0.055
REMARK  Name = 10281
REMARK  4 active torsions:
REMARK  status: ('A' for Active; 'I' for Inactive)
REMARK    1  A    between atoms: C_3  and  C_4
REMARK    2  A    between atoms: C_3  and  C_5
REMARK    3  A    between atoms: C_3  and  C_6
REMARK    4  A    between atoms: C_9  and  C_12
REMARK                            x       y       z     vdW  Elec       q    Type
REMARK                         _______ _______ _______ _____ _____    ______ ____
ROOT
ATOM      1  O   UNL     1       7.964  -6.844   7.869  0.00  0.00    +0.000 OA
ATOM      2  O   UNL     1      12.369  -6.562   4.894  0.00  0.00    +0.000 OA
ATOM      3  C   UNL     1      10.335  -6.964   7.794  0.00  0.00    +0.000 C 
ATOM      4  C   UNL     1       8.987  -6.781   7.196  0.00  0.00    +0.000 C 
ATOM      5  C   UNL     1      11.422  -6.888   7.020  0.00  0.00    +0.000 C 
ATOM      6  C   UNL     1       9.999  -6.440   4.969  0.00  0.00    +0.000 C 
ATOM      7  C   UNL     1      11.345  -6.623   5.567  0.00  0.00    +0.000 C 
ATOM      8  C   UNL     1       8.910  -6.517   5.744  0.00  0.00    +0.000 C 
ATOM      9  C   UNL     1       9.930  -6.173   3.498  0.00  0.00    +0.000 C 
ENDROOT
BRANCH   3  10
ATOM     10  C   UNL     1      10.402  -7.230   9.266  0.00  0.00    +0.000 C 
ATOM     11  C   UNL     1      11.127  -8.546   9.534  0.00  0.00    +0.000 C 
ATOM     12  C   UNL     1      11.084  -6.076   9.995  0.00  0.00    +0.000 C 
ENDBRANCH   3  10
TORSDOF 1
ENDMDL
MODEL 5
REMARK VINA RESULT:    -3.914      1.794      3.996
REMARK INTER + INTRA:          -4.198
REMARK INTER:                  -4.059
REMARK INTRA:                  -0.139
REMARK UNBOUND:                -0.055
REMARK  Name = 10281
REMARK  4 active torsions:
REMARK  status: ('A' for Active; 'I' for Inactive)
REMARK    1  A    between atoms: C_3  and  C_4
REMARK    2  A    between atoms: C_3  and  C_5
REMARK    3  A    between atoms: C_3  and  C_6
REMARK    4  A    between atoms: C_9  and  C_12
REMARK                            x       y       z     vdW  Elec       q    Type
REMARK                         _______ _______ _______ _____ _____    ______ ____
ROOT
ATOM      1  O   UNL     1       7.043   3.168  20.393  0.00  0.00    +0.000 OA
ATOM      2  O   UNL     1       8.838   5.425  24.868  0.00  0.00    +0.000 OA
ATOM      3  C   UNL     1       7.708   2.869  22.653  0.00  0.00    +0.000 C 
ATOM      4  C   UNL     1       7.456   3.675  21.431  0.00  0.00    +0.000 C 
ATOM      5  C   UNL     1       8.160   3.466  23.762  0.00  0.00    +0.000 C 
ATOM      6  C   UNL     1       8.171   5.725  22.608  0.00  0.00    +0.000 C 
ATOM      7  C   UNL     1       8.424   4.919  23.830  0.00  0.00    +0.000 C 
ATOM      8  C   UNL     1       7.720   5.128  21.498  0.00  0.00    +0.000 C 
ATOM      9  C   UNL     1       8.441   7.195  22.686  0.00  0.00    +0.000 C 
ENDROOT
BRANCH   3  10
ATOM     10  C   UNL     1       7.437   1.399  22.575  0.00  0.00    +0.000 C 
ATOM     11  C   UNL     1       8.740   0.629  22.377  0.00  0.00    +0.000 C 
ATOM     12  C   UNL     1       6.704   0.915  23.823  0.00  0.00    +0.000 C 
ENDBRANCH   3  10
TORSDOF 1
ENDMDL
MODEL 6
REMARK VINA RESULT:    -3.905     17.688     19.266
REMARK INTER + INTRA:          -4.189
REMARK INTER:                  -4.050
REMARK INTRA:                  -0.139
REMARK UNBOUND:                -0.055
REMARK  Name = 10281
REMARK  4 active torsions:
REMARK  status: ('A' for Active; 'I' for Inactive)
REMARK    1  A    between atoms: C_3  and  C_4
REMARK    2  A    between atoms: C_3  and  C_5
REMARK    3  A    between atoms: C_3  and  C_6
REMARK    4  A    between atoms: C_9  and  C_12
REMARK                            x       y       z     vdW  Elec       q    Type
REMARK                         _______ _______ _______ _____ _____    ______ ____
ROOT
ATOM      1  O   UNL     1       9.319  -6.862  10.424  0.00  0.00    +0.000 OA
ATOM      2  O   UNL     1      12.834  -6.986   6.428  0.00  0.00    +0.000 OA
ATOM      3  C   UNL     1       9.683  -7.118   8.091  0.00  0.00    +0.000 C 
ATOM      4  C   UNL     1      10.118  -6.893   9.494  0.00  0.00    +0.000 C 
ATOM      5  C   UNL     1      10.591  -7.143   7.109  0.00  0.00    +0.000 C 
ATOM      6  C   UNL     1      12.471  -6.731   8.761  0.00  0.00    +0.000 C 
ATOM      7  C   UNL     1      12.035  -6.955   7.359  0.00  0.00    +0.000 C 
ATOM      8  C   UNL     1      11.563  -6.705   9.744  0.00  0.00    +0.000 C 
ATOM      9  C   UNL     1      13.936  -6.542   9.005  0.00  0.00    +0.000 C 
ENDROOT
BRANCH   3  10
ATOM     10  C   UNL     1       8.218  -7.308   7.849  0.00  0.00    +0.000 C 
ATOM     11  C   UNL     1       7.759  -6.448   6.675  0.00  0.00    +0.000 C 
ATOM     12  C   UNL     1       7.895  -8.779   7.603  0.00  0.00    +0.000 C 
ENDBRANCH   3  10
TORSDOF 1
ENDMDL
MODEL 7
REMARK VINA RESULT:    -3.818     17.213     19.972
REMARK INTER + INTRA:          -4.097
REMARK INTER:                  -4.032
REMARK INTRA:                  -0.065
REMARK UNBOUND:                -0.055
REMARK  Name = 10281
REMARK  4 active torsions:
REMARK  status: ('A' for Active; 'I' for Inactive)
REMARK    1  A    between atoms: C_3  and  C_4
REMARK    2  A    between atoms: C_3  and  C_5
REMARK    3  A    between atoms: C_3  and  C_6
REMARK    4  A    between atoms: C_9  and  C_12
REMARK                            x       y       z     vdW  Elec       q    Type
REMARK                         _______ _______ _______ _____ _____    ______ ____
ROOT
ATOM      1  O   UNL     1       8.382  -8.527   6.001  0.00  0.00    +0.000 OA
ATOM      2  O   UNL     1      11.207  -5.959   9.710  0.00  0.00    +0.000 OA
ATOM      3  C   UNL     1      10.266  -7.167   6.490  0.00  0.00    +0.000 C 
ATOM      4  C   UNL     1       9.042  -7.931   6.845  0.00  0.00    +0.000 C 
ATOM      5  C   UNL     1      10.954  -6.532   7.445  0.00  0.00    +0.000 C 
ATOM      6  C   UNL     1       9.324  -7.322   9.221  0.00  0.00    +0.000 C 
ATOM      7  C   UNL     1      10.547  -6.557   8.866  0.00  0.00    +0.000 C 
ATOM      8  C   UNL     1       8.635  -7.957   8.266  0.00  0.00    +0.000 C 
ATOM      9  C   UNL     1       8.920  -7.342  10.662  0.00  0.00    +0.000 C 
ENDROOT
BRANCH   3  10
ATOM     10  C   UNL     1      10.670  -7.148   5.049  0.00  0.00    +0.000 C 
ATOM     11  C   UNL     1       9.866  -6.100   4.285  0.00  0.00    +0.000 C 
ATOM     12  C   UNL     1      12.168  -6.891   4.909  0.00  0.00    +0.000 C 
ENDBRANCH   3  10
TORSDOF 1
ENDMDL
MODEL 8
REMARK VINA RESULT:    -3.782     15.668     17.226
REMARK INTER + INTRA:          -4.058
REMARK INTER:                  -3.925
REMARK INTRA:                  -0.133
REMARK UNBOUND:                -0.055
REMARK  Name = 10281
REMARK  4 active torsions:
REMARK  status: ('A' for Active; 'I' for Inactive)
REMARK    1  A    between atoms: C_3  and  C_4
REMARK    2  A    between atoms: C_3  and  C_5
REMARK    3  A    between atoms: C_3  and  C_6
REMARK    4  A    between atoms: C_9  and  C_12
REMARK                            x       y       z     vdW  Elec       q    Type
REMARK                         _______ _______ _______ _____ _____    ______ ____
ROOT
ATOM      1  O   UNL     1      18.457  -4.897  13.623  0.00  0.00    +0.000 OA
ATOM      2  O   UNL     1      17.540  -2.057   9.214  0.00  0.00    +0.000 OA
ATOM      3  C   UNL     1      18.647  -2.801  12.521  0.00  0.00    +0.000 C 
ATOM      4  C   UNL     1      18.252  -4.230  12.613  0.00  0.00    +0.000 C 
ATOM      5  C   UNL     1      18.404  -2.115  11.399  0.00  0.00    +0.000 C 
ATOM      6  C   UNL     1      17.348  -4.151  10.317  0.00  0.00    +0.000 C 
ATOM      7  C   UNL     1      17.744  -2.723  10.224  0.00  0.00    +0.000 C 
ATOM      8  C   UNL     1      17.593  -4.839  11.439  0.00  0.00    +0.000 C 
ATOM      9  C   UNL     1      16.681  -4.759   9.122  0.00  0.00    +0.000 C 
ENDROOT
BRANCH   3  10
ATOM     10  C   UNL     1      19.313  -2.194  13.716  0.00  0.00    +0.000 C 
ATOM     11  C   UNL     1      20.391  -1.206  13.279  0.00  0.00    +0.000 C 
ATOM     12  C   UNL     1      18.289  -1.515  14.621  0.00  0.00    +0.000 C 
ENDBRANCH   3  10
TORSDOF 1
ENDMDL
MODEL 9
REMARK VINA RESULT:    -3.752     18.199     20.631
REMARK INTER + INTRA:          -4.026
REMARK INTER:                  -3.891
REMARK INTRA:                  -0.136
REMARK UNBOUND:                -0.055
REMARK  Name = 10281
REMARK  4 active torsions:
REMARK  status: ('A' for Active; 'I' for Inactive)
REMARK    1  A    between atoms: C_3  and  C_4
REMARK    2  A    between atoms: C_3  and  C_5
REMARK    3  A    between atoms: C_3  and  C_6
REMARK    4  A    between atoms: C_9  and  C_12
REMARK                            x       y       z     vdW  Elec       q    Type
REMARK                         _______ _______ _______ _____ _____    ______ ____
ROOT
ATOM      1  O   UNL     1      14.920  -6.040   8.448  0.00  0.00    +0.000 OA
ATOM      2  O   UNL     1      18.751  -2.570   7.172  0.00  0.00    +0.000 OA
ATOM      3  C   UNL     1      16.431  -5.252   6.793  0.00  0.00    +0.000 C 
ATOM      4  C   UNL     1      15.804  -5.247   8.140  0.00  0.00    +0.000 C 
ATOM      5  C   UNL     1      17.391  -4.367   6.503  0.00  0.00    +0.000 C 
ATOM      6  C   UNL     1      17.241  -3.360   8.826  0.00  0.00    +0.000 C 
ATOM      7  C   UNL     1      17.867  -3.365   7.480  0.00  0.00    +0.000 C 
ATOM      8  C   UNL     1      16.280  -4.245   9.117  0.00  0.00    +0.000 C 
ATOM      9  C   UNL     1      17.730  -2.342   9.809  0.00  0.00    +0.000 C 
ENDROOT
BRANCH   3  10
ATOM     10  C   UNL     1      15.942  -6.271   5.812  0.00  0.00    +0.000 C 
ATOM     11  C   UNL     1      14.865  -5.669   4.914  0.00  0.00    +0.000 C 
ATOM     12  C   UNL     1      17.098  -6.821   4.980  0.00  0.00    +0.000 C 
ENDBRANCH   3  10
TORSDOF 1
ENDMDL
MODEL 10
REMARK VINA RESULT:    -3.707      2.571      4.138
REMARK INTER + INTRA:          -3.979
REMARK INTER:                  -3.923
REMARK INTRA:                  -0.055
REMARK UNBOUND:                -0.055
REMARK  Name = 10281
REMARK  4 active torsions:
REMARK  status: ('A' for Active; 'I' for Inactive)
REMARK    1  A    between atoms: C_3  and  C_4
REMARK    2  A    between atoms: C_3  and  C_5
REMARK    3  A    between atoms: C_3  and  C_6
REMARK    4  A    between atoms: C_9  and  C_12
REMARK                            x       y       z     vdW  Elec       q    Type
REMARK                         _______ _______ _______ _____ _____    ______ ____
ROOT
ATOM      1  O   UNL     1       6.655   3.064  25.210  0.00  0.00    +0.000 OA
ATOM      2  O   UNL     1       9.172  -0.102  21.748  0.00  0.00    +0.000 OA
ATOM      3  C   UNL     1       7.553   2.807  23.027  0.00  0.00    +0.000 C 
ATOM      4  C   UNL     1       7.234   2.345  24.403  0.00  0.00    +0.000 C 
ATOM      5  C   UNL     1       8.188   1.988  22.181  0.00  0.00    +0.000 C 
ATOM      6  C   UNL     1       8.271   0.154  23.931  0.00  0.00    +0.000 C 
ATOM      7  C   UNL     1       8.592   0.616  22.557  0.00  0.00    +0.000 C 
ATOM      8  C   UNL     1       7.638   0.974  24.779  0.00  0.00    +0.000 C 
ATOM      9  C   UNL     1       8.684  -1.236  24.303  0.00  0.00    +0.000 C 
ENDROOT
BRANCH   3  10
ATOM     10  C   UNL     1       7.139   4.196  22.656  0.00  0.00    +0.000 C 
ATOM     11  C   UNL     1       8.148   5.211  23.188  0.00  0.00    +0.000 C 
ATOM     12  C   UNL     1       6.981   4.330  21.144  0.00  0.00    +0.000 C 
ENDBRANCH   3  10
TORSDOF 1
ENDMDL
