REMARK  Name = HAL
REMARK  16 active torsions:
REMARK  status: ('A' for Active; 'I' for Inactive)
REMARK    1  A    between atoms: C_1  and  C_7
REMARK    2  A    between atoms: C_7  and  C_8
REMARK    3  A    between atoms: C_8  and  N_9
REMARK    4  A    between atoms: C_10  and  C_12
REMARK    5  A    between atoms: C_12  and  O_13
REMARK    6  A    between atoms: O_13  and  P_14
REMARK    7  A    between atoms: P_14  and  O_16
REMARK    8  A    between atoms: P_14  and  C_17
REMARK    9  A    between atoms: C_17  and  C_18
REMARK   10  A    between atoms: C_17  and  N_25
REMARK   11  A    between atoms: C_18  and  C_19
REMARK   12  A    between atoms: C_26  and  C_28
REMARK   13  A    between atoms: C_28  and  C_29
REMARK   14  A    between atoms: C_29  and  C_30
REMARK   15  A    between atoms: C_30  and  C_31
REMARK   16  A    between atoms: C_31  and  O_32
REMARK                            x       y       z     vdW  Elec       q    Type
REMARK                         _______ _______ _______ _____ _____    ______ ____
ROOT
ATOM      1  C   UNL     1       5.169   3.302   3.112  0.00  0.00    +0.000 C 
ENDROOT
BRANCH   1   2
ATOM      2  N   UNL     1       3.723   3.341   3.470  0.00  0.00    +0.000 N 
ATOM      3  C   UNL     1       2.715   2.797   2.718  0.00  0.00    +0.000 C 
ATOM      4  O   UNL     1       2.916   2.195   1.670  0.00  0.00    +0.000 OA
ATOM      5  H   UNL     1       3.470   3.918   4.263  0.00  0.00    +0.000 HD
BRANCH   3   6
ATOM      6  C   UNL     1       1.315   2.998   3.273  0.00  0.00    +0.000 C 
BRANCH   6   7
ATOM      7  C   UNL     1       0.793   4.424   3.118  0.00  0.00    +0.000 C 
BRANCH   7   8
ATOM      8  C   UNL     1       0.622   4.834   1.654  0.00  0.00    +0.000 C 
BRANCH   8   9
ATOM      9  C   UNL     1       0.151   6.264   1.526  0.00  0.00    +0.000 C 
ATOM     10  O   UNL     1       0.176   7.093   2.422  0.00  0.00    +0.000 OA
BRANCH   9  11
ATOM     11  O   UNL     1      -0.275   6.562   0.278  0.00  0.00    +0.000 OA
ATOM     12  H   UNL     1      -0.215   5.813  -0.347  0.00  0.00    +0.000 HD
ENDBRANCH   9  11
ENDBRANCH   8   9
ENDBRANCH   7   8
ENDBRANCH   6   7
ENDBRANCH   3   6
ENDBRANCH   1   2
BRANCH   1  13
ATOM     13  P   UNL     1       5.585   2.214   1.701  0.00  0.00    +0.000 P 
ATOM     14  O   UNL     1       5.937   1.293   0.507  0.00  0.00    +0.000 OA
BRANCH  13  15
ATOM     15  O   UNL     1       7.166   2.677   1.814  0.00  0.00    +0.000 OA
ATOM     16  H   UNL     1       7.669   2.076   1.224  0.00  0.00    +0.000 HD
ENDBRANCH  13  15
BRANCH  13  17
ATOM     17  O   UNL     1       5.733   0.935   2.777  0.00  0.00    +0.000 OA
BRANCH  17  18
ATOM     18  C   UNL     1       6.472   0.863   3.976  0.00  0.00    +0.000 C 
BRANCH  18  20
ATOM     19  N   UNL     1       8.976   0.981   3.928  0.00  0.00    +0.000 N 
ATOM     20  C   UNL     1       7.805   1.596   4.337  0.00  0.00    +0.000 C 
ATOM     21  O   UNL     1       7.803   2.616   5.027  0.00  0.00    +0.000 OA
ATOM     22  H   UNL     1       8.917   0.066   3.500  0.00  0.00    +0.000 HD
BRANCH  19  23
ATOM     23  C   UNL     1      10.277   1.457   4.400  0.00  0.00    +0.000 C 
BRANCH  23  24
ATOM     24  C   UNL     1      11.469   1.097   3.499  0.00  0.00    +0.000 C 
BRANCH  24  25
ATOM     25  C   UNL     1      11.365   1.743   2.139  0.00  0.00    +0.000 A 
ATOM     26  C   UNL     1      11.890   3.021   1.905  0.00  0.00    +0.000 A 
ATOM     27  C   UNL     1      11.656   3.665   0.689  0.00  0.00    +0.000 A 
ATOM     28  C   UNL     1      10.902   3.035  -0.301  0.00  0.00    +0.000 A 
ATOM     29  C   UNL     1      10.420   1.744  -0.096  0.00  0.00    +0.000 A 
ATOM     30  C   UNL     1      10.659   1.096   1.113  0.00  0.00    +0.000 A 
ENDBRANCH  24  25
ENDBRANCH  23  24
ENDBRANCH  19  23
ENDBRANCH  18  20
ENDBRANCH  17  18
ENDBRANCH  13  17
ENDBRANCH   1  13
BRANCH   1  31
ATOM     31  C   UNL     1       5.664   4.761   2.846  0.00  0.00    +0.000 C 
BRANCH  31  32
ATOM     32  C   UNL     1       5.181   5.421   1.575  0.00  0.00    +0.000 A 
ATOM     33  C   UNL     1       4.060   6.259   1.589  0.00  0.00    +0.000 A 
ATOM     34  C   UNL     1       3.634   6.901   0.420  0.00  0.00    +0.000 A 
ATOM     35  C   UNL     1       4.309   6.691  -0.782  0.00  0.00    +0.000 A 
ATOM     36  C   UNL     1       5.431   5.861  -0.809  0.00  0.00    +0.000 A 
ATOM     37  C   UNL     1       5.869   5.240   0.364  0.00  0.00    +0.000 A 
ENDBRANCH  31  32
ENDBRANCH   1  31
TORSDOF 16
