REMARK  Name = MEM
REMARK  11 active torsions:
REMARK  status: ('A' for Active; 'I' for Inactive)
REMARK    1  A    between atoms: C_1  and  N_2
REMARK    2  A    between atoms: N_2  and  C_3
REMARK    3  A    between atoms: C_4  and  C_6
REMARK    4  A    between atoms: C_10  and  S_11
REMARK    5  A    between atoms: S_11  and  C_12
REMARK    6  A    between atoms: C_13  and  C_14
REMARK    7  A    between atoms: C_16  and  C_17
REMARK    8  A    between atoms: C_17  and  C_18
REMARK    9  A    between atoms: C_17  and  O_19
REMARK   10  A    between atoms: C_23  and  C_24
REMARK   11  A    between atoms: C_24  and  O_26
REMARK                            x       y       z     vdW  Elec       q    Type
REMARK                         _______ _______ _______ _____ _____    ______ ____
ROOT
ATOM      1  C   UNL     1       4.480  -5.975   1.911  0.00  0.00    +0.000 C 
ATOM      2  C   UNL     1       4.435  -4.654   2.655  0.00  0.00    +0.000 C 
ATOM      3  C   UNL     1       5.597  -3.731   2.290  0.00  0.00    +0.000 C 
ATOM      4  C   UNL     1       4.519  -5.121   4.116  0.00  0.00    +0.000 C 
ATOM      5  C   UNL     1       5.696  -4.868   5.112  0.00  0.00    +0.000 C 
ATOM      6  C   UNL     1       6.178  -6.278   4.688  0.00  0.00    +0.000 C 
ATOM      7  O   UNL     1       7.214  -6.892   4.752  0.00  0.00    +0.000 OA
ATOM      8  N   UNL     1       4.992  -6.527   4.044  0.00  0.00    +0.000 N 
ATOM      9  C   UNL     1       4.913  -6.955   2.729  0.00  0.00    +0.000 C 
ENDROOT
BRANCH   5  10
ATOM     10  C   UNL     1       5.235  -4.684   6.548  0.00  0.00    +0.000 C 
ATOM     11  C   UNL     1       6.399  -4.397   7.483  0.00  0.00    +0.000 C 
BRANCH  10  12
ATOM     12  O   UNL     1       4.353  -3.559   6.566  0.00  0.00    +0.000 OA
ATOM     13  H   UNL     1       3.860  -3.585   7.405  0.00  0.00    +0.000 HD
ENDBRANCH  10  12
ENDBRANCH   5  10
BRANCH   9  14
ATOM     14  C   UNL     1       5.275  -8.343   2.368  0.00  0.00    +0.000 C 
ATOM     15  O   UNL     1       5.486  -8.789   1.254  0.00  0.00    +0.000 OA
BRANCH  14  16
ATOM     16  O   UNL     1       5.341  -9.146   3.451  0.00  0.00    +0.000 OA
ATOM     17  H   UNL     1       5.662  -9.998   3.095  0.00  0.00    +0.000 HD
ENDBRANCH  14  16
ENDBRANCH   9  14
BRANCH   1  18
ATOM     18  S   UNL     1       4.115  -6.038   0.227  0.00  0.00    +0.000 S 
BRANCH  18  23
ATOM     19  C   UNL     1       0.103  -5.863  -0.022  0.00  0.00    +0.000 C 
ATOM     20  C   UNL     1       1.364  -5.685   0.828  0.00  0.00    +0.000 C 
ATOM     21  N   UNL     1       0.650  -5.971  -1.396  0.00  0.00    +0.000 NA
ATOM     22  C   UNL     1       1.867  -6.797  -1.254  0.00  0.00    +0.000 C 
ATOM     23  C   UNL     1       2.380  -6.632   0.190  0.00  0.00    +0.000 C 
ATOM     24  H   UNL     1       0.944  -5.029  -1.680  0.00  0.00    +0.000 HD
BRANCH  19  28
ATOM     25  C   UNL     1      -2.750  -6.164  -0.692  0.00  0.00    +0.000 C 
ATOM     26  N   UNL     1      -2.220  -4.889  -0.236  0.00  0.00    +0.000 N 
ATOM     27  C   UNL     1      -3.132  -3.760  -0.146  0.00  0.00    +0.000 C 
ATOM     28  C   UNL     1      -0.878  -4.668   0.075  0.00  0.00    +0.000 C 
ATOM     29  O   UNL     1      -0.475  -3.546   0.396  0.00  0.00    +0.000 OA
ENDBRANCH  19  28
ENDBRANCH  18  23
ENDBRANCH   1  18
TORSDOF 7
