REMARK  Name = 26757
REMARK  7 active torsions:
REMARK  status: ('A' for Active; 'I' for Inactive)
REMARK    1  A    between atoms: N_1  and  C_2
REMARK    2  A    between atoms: N_1  and  C_6
REMARK    3  A    between atoms: N_1  and  C_7
REMARK    4  A    between atoms: C_2  and  C_3
REMARK    5  A    between atoms: C_2  and  C_4
REMARK    6  A    between atoms: C_3  and  C_5
REMARK    7  A    between atoms: C_6  and  C_13
REMARK                            x       y       z     vdW  Elec       q    Type
REMARK                         _______ _______ _______ _____ _____    ______ ____
ROOT
ATOM      1  C   UNL     1      -0.071   1.460   0.655  0.00  0.00    +0.000 C 
ATOM      2  H   UNL     1       0.475   1.821   1.539  0.00  0.00    +0.000 HD
ENDROOT
BRANCH   1   3
ATOM      3  C   UNL     1      -1.452   1.063   1.210  0.00  0.00    +0.000 C 
ATOM      4  H   UNL     1      -1.354   0.388   2.067  0.00  0.00    +0.000 HD
ATOM      5  H   UNL     1      -1.988   1.945   1.580  0.00  0.00    +0.000 HD
ATOM      6  H   UNL     1      -2.080   0.573   0.462  0.00  0.00    +0.000 HD
ENDBRANCH   1   3
BRANCH   1   7
ATOM      7  C   UNL     1      -0.212   2.712  -0.270  0.00  0.00    +0.000 C 
ATOM      8  H   UNL     1      -0.812   3.458   0.267  0.00  0.00    +0.000 HD
ATOM      9  H   UNL     1       0.790   3.156  -0.361  0.00  0.00    +0.000 HD
BRANCH   7  10
ATOM     10  C   UNL     1      -0.764   2.637  -1.682  0.00  0.00    +0.000 A 
ATOM     11  C   UNL     1      -1.319   1.498  -2.268  0.00  0.00    +0.000 A 
ATOM     12  C   UNL     1      -0.678   3.807  -2.464  0.00  0.00    +0.000 A 
ATOM     13  C   UNL     1      -1.711   1.507  -3.614  0.00  0.00    +0.000 A 
ATOM     14  C   UNL     1      -1.058   3.816  -3.806  0.00  0.00    +0.000 A 
ATOM     15  C   UNL     1      -1.559   2.657  -4.387  0.00  0.00    +0.000 A 
ATOM     16  H   UNL     1      -1.435   0.577  -1.705  0.00  0.00    +0.000 HD
ATOM     17  H   UNL     1      -0.285   4.724  -2.028  0.00  0.00    +0.000 HD
ATOM     18  H   UNL     1      -2.119   0.606  -4.063  0.00  0.00    +0.000 HD
ATOM     19  H   UNL     1      -0.950   4.721  -4.396  0.00  0.00    +0.000 HD
ATOM     20  H   UNL     1      -1.826   2.648  -5.440  0.00  0.00    +0.000 HD
ENDBRANCH   7  10
ENDBRANCH   1   7
BRANCH   1  21
ATOM     21  N   UNL     1       0.696   0.321   0.084  0.00  0.00    +0.000 NA
BRANCH  21  22
ATOM     22  C   UNL     1       0.745  -0.849   0.965  0.00  0.00    +0.000 C 
ATOM     23  H   UNL     1      -0.250  -1.283   1.104  0.00  0.00    +0.000 HD
ATOM     24  H   UNL     1       1.347  -1.651   0.519  0.00  0.00    +0.000 HD
ATOM     25  H   UNL     1       1.164  -0.617   1.950  0.00  0.00    +0.000 HD
ENDBRANCH  21  22
BRANCH  21  26
ATOM     26  C   UNL     1       2.063   0.686  -0.341  0.00  0.00    +0.000 C 
ATOM     27  H   UNL     1       2.557  -0.196  -0.771  0.00  0.00    +0.000 HD
ATOM     28  H   UNL     1       2.024   1.407  -1.164  0.00  0.00    +0.000 HD
BRANCH  26  29
ATOM     29  C   UNL     1       2.906   1.224   0.747  0.00  0.00    +0.000 C 
ATOM     30  C   UNL     1       3.582   1.656   1.643  0.00  0.00    +0.000 C 
ATOM     31  H   UNL     1       4.157   2.046   2.447  0.00  0.00    +0.000 HD
ENDBRANCH  26  29
ENDBRANCH  21  26
ENDBRANCH   1  21
TORSDOF 7
