REMARK  Name = SLG
REMARK  6 active torsions:
REMARK  status: ('A' for Active; 'I' for Inactive)
REMARK    1  A    between atoms: C_1  and  C_18
REMARK    2  A    between atoms: C_3  and  C_8
REMARK    3  A    between atoms: C_11  and  C_14
REMARK    4  A    between atoms: C_14  and  O_16
REMARK    5  A    between atoms: C_18  and  N_21
REMARK    6  A    between atoms: C_19  and  C_23
REMARK                            x       y       z     vdW  Elec       q    Type
REMARK                         _______ _______ _______ _____ _____    ______ ____
ROOT
ATOM      1  C   UNL     1       2.513  -0.096  -0.052  0.00  0.00    +0.000 C 
ATOM      2  C   UNL     1       3.241  -0.669  -1.094  0.00  0.00    +0.000 C 
ATOM      3  C   UNL     1       3.266   0.584   1.001  0.00  0.00    +0.000 C 
ATOM      4  C   UNL     1       4.686   0.599   0.926  0.00  0.00    +0.000 C 
ATOM      5  C   UNL     1       5.355  -0.005  -0.128  0.00  0.00    +0.000 C 
ATOM      6  F   UNL     1       6.712   0.020  -0.180  0.00  0.00    +0.000 F 
ATOM      7  C   UNL     1       4.632  -0.632  -1.131  0.00  0.00    +0.000 C 
ENDROOT
BRANCH   3   8
ATOM      8  C   UNL     1       2.647   1.235   2.210  0.00  0.00    +0.000 C 
ATOM      9  C   UNL     1       3.333   1.262   3.447  0.00  0.00    +0.000 C 
ATOM     10  C   UNL     1       2.719   1.788   4.588  0.00  0.00    +0.000 C 
ATOM     11  C   UNL     1       1.397   2.256   4.526  0.00  0.00    +0.000 C 
ATOM     12  C   UNL     1       0.751   2.306   3.303  0.00  0.00    +0.000 C 
ATOM     13  C   UNL     1       1.379   1.835   2.174  0.00  0.00    +0.000 C 
BRANCH  11  14
ATOM     14  C   UNL     1       0.659   2.679   5.728  0.00  0.00    +0.000 C 
ATOM     15  O   UNL     1       1.209   2.657   6.816  0.00  0.00    +0.000 OA
BRANCH  14  16
ATOM     16  O   UNL     1      -0.653   3.009   5.663  0.00  0.00    +0.000 OA
ATOM     17  H   UNL     1      -1.163   2.983   4.840  0.00  0.00    +0.000 HD
ENDBRANCH  14  16
ENDBRANCH  11  14
ENDBRANCH   3   8
BRANCH   1  18
ATOM     18  C   UNL     1       0.969  -0.266  -0.066  0.00  0.00    +0.000 C 
BRANCH  18  21
ATOM     19  C   UNL     1       0.491  -2.362  -1.543  0.00  0.00    +0.000 C 
ATOM     20  O   UNL     1       1.303  -2.962  -0.856  0.00  0.00    +0.000 OA
ATOM     21  N   UNL     1       0.269  -0.978  -1.202  0.00  0.00    +0.000 N 
ATOM     22  C   UNL     1      -0.750  -0.081  -1.811  0.00  0.00    +0.000 C 
BRANCH  19  23
ATOM     23  C   UNL     1      -0.293  -3.273  -2.651  0.00  0.00    +0.000 C 
ATOM     24  C   UNL     1      -1.647  -5.817  -0.531  0.00  0.00    +0.000 C 
ATOM     25  C   UNL     1      -1.979  -5.250   0.715  0.00  0.00    +0.000 C 
ATOM     26  C   UNL     1      -2.255  -3.865   0.831  0.00  0.00    +0.000 C 
ATOM     27  C   UNL     1      -2.305  -3.057  -0.305  0.00  0.00    +0.000 C 
ATOM     28  C   UNL     1      -1.947  -3.586  -1.501  0.00  0.00    +0.000 C 
ATOM     29  C   UNL     1      -1.447  -4.840  -1.521  0.00  0.00    +0.000 C 
ATOM     30  C   UNL     1      -0.434  -4.750  -2.430  0.00  0.00    +0.000 C 
ATOM     31  N   UNL     1      -1.540  -2.846  -2.551  0.00  0.00    +0.000 N 
ATOM     32  H   UNL     1      -1.965  -3.242  -3.443  0.00  0.00    +0.000 HD
ENDBRANCH  19  23
ENDBRANCH  18  21
ENDBRANCH   1  18
TORSDOF 6
