REMARK  Name = 10281
REMARK  4 active torsions:
REMARK  status: ('A' for Active; 'I' for Inactive)
REMARK    1  A    between atoms: C_3  and  C_4
REMARK    2  A    between atoms: C_3  and  C_5
REMARK    3  A    between atoms: C_3  and  C_6
REMARK    4  A    between atoms: C_9  and  C_12
REMARK                            x       y       z     vdW  Elec       q    Type
REMARK                         _______ _______ _______ _____ _____    ______ ____
ROOT
ATOM      1  O   UNL     1       0.884   2.375   0.002  0.00  0.00    +0.000 OA
ATOM      2  O   UNL     1      -2.034  -2.078  -0.001  0.00  0.00    +0.000 OA
ATOM      3  C   UNL     1       0.864   0.000   0.000  0.00  0.00    +0.000 C 
ATOM      4  C   UNL     1       0.224   1.341   0.001  0.00  0.00    +0.000 C 
ATOM      5  C   UNL     1       0.103  -1.100  -0.000  0.00  0.00    +0.000 C 
ATOM      6  C   UNL     1      -2.014   0.297  -0.001  0.00  0.00    +0.000 C 
ATOM      7  C   UNL     1      -1.374  -1.043  -0.001  0.00  0.00    +0.000 C 
ATOM      8  C   UNL     1      -1.253   1.398   0.000  0.00  0.00    +0.000 C 
ATOM      9  C   UNL     1      -3.510   0.345  -0.002  0.00  0.00    +0.000 C 
ENDROOT
BRANCH   3  10
ATOM     10  C   UNL     1       2.360  -0.047   0.000  0.00  0.00    +0.000 C 
ATOM     11  C   UNL     1       2.869  -0.747   1.257  0.00  0.00    +0.000 C 
ATOM     12  C   UNL     1       2.881  -0.740  -1.256  0.00  0.00    +0.000 C 
ENDBRANCH   3  10
TORSDOF 1
