MODEL 1
REMARK VINA RESULT:    -4.677      0.000      0.000
REMARK INTER + INTRA:          -7.556
REMARK INTER:                  -6.484
REMARK INTRA:                  -1.071
REMARK UNBOUND:                -1.238
REMARK  Name = MEM
REMARK  11 active torsions:
REMARK  status: ('A' for Active; 'I' for Inactive)
REMARK    1  A    between atoms: C_1  and  N_2
REMARK    2  A    between atoms: N_2  and  C_3
REMARK    3  A    between atoms: C_4  and  C_6
REMARK    4  A    between atoms: C_10  and  S_11
REMARK    5  A    between atoms: S_11  and  C_12
REMARK    6  A    between atoms: C_13  and  C_14
REMARK    7  A    between atoms: C_16  and  C_17
REMARK    8  A    between atoms: C_17  and  C_18
REMARK    9  A    between atoms: C_17  and  O_19
REMARK   10  A    between atoms: C_23  and  C_24
REMARK   11  A    between atoms: C_24  and  O_26
REMARK                            x       y       z     vdW  Elec       q    Type
REMARK                         _______ _______ _______ _____ _____    ______ ____
ROOT
ATOM      1  C   UNL     1     -19.710  37.505 -25.241  0.00  0.00    +0.000 C 
ATOM      2  C   UNL     1     -21.085  36.884 -25.396  0.00  0.00    +0.000 C 
ATOM      3  C   UNL     1     -21.420  35.903 -24.273  0.00  0.00    +0.000 C 
ATOM      4  C   UNL     1     -20.949  36.171 -26.750  0.00  0.00    +0.000 C 
ATOM      5  C   UNL     1     -20.968  34.628 -27.000  0.00  0.00    +0.000 C 
ATOM      6  C   UNL     1     -19.423  34.741 -26.963  0.00  0.00    +0.000 C 
ATOM      7  O   UNL     1     -18.505  33.974 -26.812  0.00  0.00    +0.000 OA
ATOM      8  N   UNL     1     -19.488  36.111 -27.008  0.00  0.00    +0.000 N 
ATOM      9  C   UNL     1     -18.843  36.936 -26.102  0.00  0.00    +0.000 C 
ENDROOT
BRANCH   5  10
ATOM     10  C   UNL     1     -21.614  34.245 -28.321  0.00  0.00    +0.000 C 
ATOM     11  C   UNL     1     -22.628  35.281 -28.776  0.00  0.00    +0.000 C 
BRANCH  10  12
ATOM     12  O   UNL     1     -20.570  34.175 -29.295  0.00  0.00    +0.000 OA
ATOM     13  H   UNL     1     -20.019  34.970 -29.193  0.00  0.00    +0.000 HD
ENDBRANCH  10  12
ENDBRANCH   5  10
BRANCH   9  14
ATOM     14  C   UNL     1     -17.375  37.112 -26.159  0.00  0.00    +0.000 C 
ATOM     15  O   UNL     1     -16.757  38.019 -26.687  0.00  0.00    +0.000 OA
BRANCH  14  16
ATOM     16  O   UNL     1     -16.721  36.102 -25.548  0.00  0.00    +0.000 OA
ATOM     17  H   UNL     1     -16.819  35.349 -26.164  0.00  0.00    +0.000 HD
ENDBRANCH  14  16
ENDBRANCH   9  14
BRANCH   1  18
ATOM     18  S   UNL     1     -19.419  38.678 -24.011  0.00  0.00    +0.000 S 
BRANCH  18  23
ATOM     19  C   UNL     1     -21.849  41.885 -23.966  0.00  0.00    +0.000 C 
ATOM     20  C   UNL     1     -21.700  40.366 -24.078  0.00  0.00    +0.000 C 
ATOM     21  N   UNL     1     -20.512  42.308 -23.483  0.00  0.00    +0.000 NA
ATOM     22  C   UNL     1     -19.556  41.463 -24.229  0.00  0.00    +0.000 C 
ATOM     23  C   UNL     1     -20.290  40.169 -24.632  0.00  0.00    +0.000 C 
ATOM     24  H   UNL     1     -20.452  42.045 -22.492  0.00  0.00    +0.000 HD
BRANCH  19  28
ATOM     25  C   UNL     1     -24.559  42.594 -24.879  0.00  0.00    +0.000 C 
ATOM     26  N   UNL     1     -24.214  42.623 -23.467  0.00  0.00    +0.000 N 
ATOM     27  C   UNL     1     -25.237  43.038 -22.520  0.00  0.00    +0.000 C 
ATOM     28  C   UNL     1     -22.947  42.324 -22.966  0.00  0.00    +0.000 C 
ATOM     29  O   UNL     1     -22.697  42.429 -21.761  0.00  0.00    +0.000 OA
ENDBRANCH  19  28
ENDBRANCH  18  23
ENDBRANCH   1  18
TORSDOF 7
ENDMDL
MODEL 2
REMARK VINA RESULT:    -4.485     16.516     19.161
REMARK INTER + INTRA:          -7.297
REMARK INTER:                  -6.448
REMARK INTRA:                  -0.849
REMARK UNBOUND:                -1.238
REMARK  Name = MEM
REMARK  11 active torsions:
REMARK  status: ('A' for Active; 'I' for Inactive)
REMARK    1  A    between atoms: C_1  and  N_2
REMARK    2  A    between atoms: N_2  and  C_3
REMARK    3  A    between atoms: C_4  and  C_6
REMARK    4  A    between atoms: C_10  and  S_11
REMARK    5  A    between atoms: S_11  and  C_12
REMARK    6  A    between atoms: C_13  and  C_14
REMARK    7  A    between atoms: C_16  and  C_17
REMARK    8  A    between atoms: C_17  and  C_18
REMARK    9  A    between atoms: C_17  and  O_19
REMARK   10  A    between atoms: C_23  and  C_24
REMARK   11  A    between atoms: C_24  and  O_26
REMARK                            x       y       z     vdW  Elec       q    Type
REMARK                         _______ _______ _______ _____ _____    ______ ____
ROOT
ATOM      1  C   UNL     1     -35.282  28.116 -26.114  0.00  0.00    +0.000 C 
ATOM      2  C   UNL     1     -33.832  27.990 -26.541  0.00  0.00    +0.000 C 
ATOM      3  C   UNL     1     -32.912  28.960 -25.801  0.00  0.00    +0.000 C 
ATOM      4  C   UNL     1     -33.922  28.324 -28.038  0.00  0.00    +0.000 C 
ATOM      5  C   UNL     1     -33.319  29.575 -28.754  0.00  0.00    +0.000 C 
ATOM      6  C   UNL     1     -34.733  30.184 -28.586  0.00  0.00    +0.000 C 
ATOM      7  O   UNL     1     -35.206  31.293 -28.623  0.00  0.00    +0.000 OA
ATOM      8  N   UNL     1     -35.249  28.969 -28.209  0.00  0.00    +0.000 N 
ATOM      9  C   UNL     1     -35.987  28.780 -27.053  0.00  0.00    +0.000 C 
ENDROOT
BRANCH   5  10
ATOM     10  C   UNL     1     -32.841  29.283 -30.166  0.00  0.00    +0.000 C 
ATOM     11  C   UNL     1     -32.184  27.916 -30.269  0.00  0.00    +0.000 C 
BRANCH  10  12
ATOM     12  O   UNL     1     -33.994  29.295 -31.012  0.00  0.00    +0.000 OA
ATOM     13  H   UNL     1     -34.579  28.573 -30.721  0.00  0.00    +0.000 HD
ENDBRANCH  10  12
ENDBRANCH   5  10
BRANCH   9  14
ATOM     14  C   UNL     1     -37.377  29.276 -26.960  0.00  0.00    +0.000 C 
ATOM     15  O   UNL     1     -37.768  30.287 -26.404  0.00  0.00    +0.000 OA
BRANCH  14  16
ATOM     16  O   UNL     1     -38.251  28.448 -27.569  0.00  0.00    +0.000 OA
ATOM     17  H   UNL     1     -38.625  27.918 -26.838  0.00  0.00    +0.000 HD
ENDBRANCH  14  16
ENDBRANCH   9  14
BRANCH   1  18
ATOM     18  S   UNL     1     -35.786  27.549 -24.566  0.00  0.00    +0.000 S 
BRANCH  18  23
ATOM     19  C   UNL     1     -34.426  23.927 -23.462  0.00  0.00    +0.000 C 
ATOM     20  C   UNL     1     -34.131  25.295 -24.082  0.00  0.00    +0.000 C 
ATOM     21  N   UNL     1     -35.760  24.130 -22.848  0.00  0.00    +0.000 NA
ATOM     22  C   UNL     1     -36.505  24.949 -23.826  0.00  0.00    +0.000 C 
ATOM     23  C   UNL     1     -35.476  25.743 -24.654  0.00  0.00    +0.000 C 
ATOM     24  H   UNL     1     -35.622  24.699 -22.005  0.00  0.00    +0.000 HD
BRANCH  19  28
ATOM     25  C   UNL     1     -32.321  21.950 -24.047  0.00  0.00    +0.000 C 
ATOM     26  N   UNL     1     -32.413  22.580 -22.739  0.00  0.00    +0.000 N 
ATOM     27  C   UNL     1     -31.453  22.186 -21.720  0.00  0.00    +0.000 C 
ATOM     28  C   UNL     1     -33.396  23.504 -22.385  0.00  0.00    +0.000 C 
ATOM     29  O   UNL     1     -33.460  23.957 -21.239  0.00  0.00    +0.000 OA
ENDBRANCH  19  28
ENDBRANCH  18  23
ENDBRANCH   1  18
TORSDOF 7
ENDMDL
MODEL 3
REMARK VINA RESULT:    -4.484     16.793     18.897
REMARK INTER + INTRA:          -7.296
REMARK INTER:                  -5.622
REMARK INTRA:                  -1.674
REMARK UNBOUND:                -1.238
REMARK  Name = MEM
REMARK  11 active torsions:
REMARK  status: ('A' for Active; 'I' for Inactive)
REMARK    1  A    between atoms: C_1  and  N_2
REMARK    2  A    between atoms: N_2  and  C_3
REMARK    3  A    between atoms: C_4  and  C_6
REMARK    4  A    between atoms: C_10  and  S_11
REMARK    5  A    between atoms: S_11  and  C_12
REMARK    6  A    between atoms: C_13  and  C_14
REMARK    7  A    between atoms: C_16  and  C_17
REMARK    8  A    between atoms: C_17  and  C_18
REMARK    9  A    between atoms: C_17  and  O_19
REMARK   10  A    between atoms: C_23  and  C_24
REMARK   11  A    between atoms: C_24  and  O_26
REMARK                            x       y       z     vdW  Elec       q    Type
REMARK                         _______ _______ _______ _____ _____    ______ ____
ROOT
ATOM      1  C   UNL     1     -31.474  23.612 -24.379  0.00  0.00    +0.000 C 
ATOM      2  C   UNL     1     -30.625  22.404 -24.728  0.00  0.00    +0.000 C 
ATOM      3  C   UNL     1     -29.330  22.338 -23.919  0.00  0.00    +0.000 C 
ATOM      4  C   UNL     1     -30.349  22.645 -26.220  0.00  0.00    +0.000 C 
ATOM      5  C   UNL     1     -28.966  22.960 -26.876  0.00  0.00    +0.000 C 
ATOM      6  C   UNL     1     -29.409  24.441 -26.773  0.00  0.00    +0.000 C 
ATOM      7  O   UNL     1     -28.856  25.512 -26.811  0.00  0.00    +0.000 OA
ATOM      8  N   UNL     1     -30.690  24.072 -26.450  0.00  0.00    +0.000 N 
ATOM      9  C   UNL     1     -31.366  24.551 -25.340  0.00  0.00    +0.000 C 
ENDROOT
BRANCH   5  10
ATOM     10  C   UNL     1     -28.815  22.366 -28.266  0.00  0.00    +0.000 C 
ATOM     11  C   UNL     1     -30.072  21.636 -28.709  0.00  0.00    +0.000 C 
BRANCH  10  12
ATOM     12  O   UNL     1     -28.583  23.453 -29.165  0.00  0.00    +0.000 OA
ATOM     13  H   UNL     1     -27.759  23.265 -29.648  0.00  0.00    +0.000 HD
ENDBRANCH  10  12
ENDBRANCH   5  10
BRANCH   9  14
ATOM     14  C   UNL     1     -31.875  25.939 -25.312  0.00  0.00    +0.000 C 
ATOM     15  O   UNL     1     -31.331  26.920 -24.837  0.00  0.00    +0.000 OA
BRANCH  14  16
ATOM     16  O   UNL     1     -33.095  26.041 -25.881  0.00  0.00    +0.000 OA
ATOM     17  H   UNL     1     -33.603  26.594 -25.255  0.00  0.00    +0.000 HD
ENDBRANCH  14  16
ENDBRANCH   9  14
BRANCH   1  18
ATOM     18  S   UNL     1     -32.310  23.680 -22.872  0.00  0.00    +0.000 S 
BRANCH  18  23
ATOM     19  C   UNL     1     -35.916  24.297 -24.547  0.00  0.00    +0.000 C 
ATOM     20  C   UNL     1     -34.945  24.592 -23.401  0.00  0.00    +0.000 C 
ATOM     21  N   UNL     1     -35.046  23.635 -25.548  0.00  0.00    +0.000 NA
ATOM     22  C   UNL     1     -34.160  22.757 -24.756  0.00  0.00    +0.000 C 
ATOM     23  C   UNL     1     -34.054  23.352 -23.339  0.00  0.00    +0.000 C 
ATOM     24  H   UNL     1     -34.462  24.366 -25.972  0.00  0.00    +0.000 HD
BRANCH  19  28
ATOM     25  C   UNL     1     -38.731  24.324 -25.415  0.00  0.00    +0.000 C 
ATOM     26  N   UNL     1     -37.906  25.516 -25.519  0.00  0.00    +0.000 N 
ATOM     27  C   UNL     1     -38.500  26.715 -26.089  0.00  0.00    +0.000 C 
ATOM     28  C   UNL     1     -36.561  25.569 -25.151  0.00  0.00    +0.000 C 
ATOM     29  O   UNL     1     -35.893  26.594 -25.322  0.00  0.00    +0.000 OA
ENDBRANCH  19  28
ENDBRANCH  18  23
ENDBRANCH   1  18
TORSDOF 7
ENDMDL
MODEL 4
REMARK VINA RESULT:    -4.409      1.637      1.970
REMARK INTER + INTRA:          -7.193
REMARK INTER:                  -5.848
REMARK INTRA:                  -1.345
REMARK UNBOUND:                -1.238
REMARK  Name = MEM
REMARK  11 active torsions:
REMARK  status: ('A' for Active; 'I' for Inactive)
REMARK    1  A    between atoms: C_1  and  N_2
REMARK    2  A    between atoms: N_2  and  C_3
REMARK    3  A    between atoms: C_4  and  C_6
REMARK    4  A    between atoms: C_10  and  S_11
REMARK    5  A    between atoms: S_11  and  C_12
REMARK    6  A    between atoms: C_13  and  C_14
REMARK    7  A    between atoms: C_16  and  C_17
REMARK    8  A    between atoms: C_17  and  C_18
REMARK    9  A    between atoms: C_17  and  O_19
REMARK   10  A    between atoms: C_23  and  C_24
REMARK   11  A    between atoms: C_24  and  O_26
REMARK                            x       y       z     vdW  Elec       q    Type
REMARK                         _______ _______ _______ _____ _____    ______ ____
ROOT
ATOM      1  C   UNL     1     -19.546  37.348 -24.734  0.00  0.00    +0.000 C 
ATOM      2  C   UNL     1     -20.954  36.819 -24.928  0.00  0.00    +0.000 C 
ATOM      3  C   UNL     1     -21.251  35.597 -24.060  0.00  0.00    +0.000 C 
ATOM      4  C   UNL     1     -20.946  36.464 -26.423  0.00  0.00    +0.000 C 
ATOM      5  C   UNL     1     -21.049  35.034 -27.044  0.00  0.00    +0.000 C 
ATOM      6  C   UNL     1     -19.503  35.097 -27.104  0.00  0.00    +0.000 C 
ATOM      7  O   UNL     1     -18.610  34.294 -27.221  0.00  0.00    +0.000 OA
ATOM      8  N   UNL     1     -19.511  36.436 -26.804  0.00  0.00    +0.000 N 
ATOM      9  C   UNL     1     -18.768  36.992 -25.776  0.00  0.00    +0.000 C 
ENDROOT
BRANCH   5  10
ATOM     10  C   UNL     1     -21.804  35.009 -28.363  0.00  0.00    +0.000 C 
ATOM     11  C   UNL     1     -22.523  36.322 -28.629  0.00  0.00    +0.000 C 
BRANCH  10  12
ATOM     12  O   UNL     1     -20.838  34.805 -29.397  0.00  0.00    +0.000 OA
ATOM     13  H   UNL     1     -21.028  35.443 -30.107  0.00  0.00    +0.000 HD
ENDBRANCH  10  12
ENDBRANCH   5  10
BRANCH   9  14
ATOM     14  C   UNL     1     -17.302  37.141 -25.904  0.00  0.00    +0.000 C 
ATOM     15  O   UNL     1     -16.688  38.106 -26.325  0.00  0.00    +0.000 OA
BRANCH  14  16
ATOM     16  O   UNL     1     -16.644  36.032 -25.505  0.00  0.00    +0.000 OA
ATOM     17  H   UNL     1     -17.235  35.634 -24.835  0.00  0.00    +0.000 HD
ENDBRANCH  14  16
ENDBRANCH   9  14
BRANCH   1  18
ATOM     18  S   UNL     1     -19.118  38.170 -23.280  0.00  0.00    +0.000 S 
BRANCH  18  23
ATOM     19  C   UNL     1     -22.042  40.670 -24.459  0.00  0.00    +0.000 C 
ATOM     20  C   UNL     1     -20.653  40.077 -24.714  0.00  0.00    +0.000 C 
ATOM     21  N   UNL     1     -22.590  39.772 -23.414  0.00  0.00    +0.000 NA
ATOM     22  C   UNL     1     -21.452  39.504 -22.510  0.00  0.00    +0.000 C 
ATOM     23  C   UNL     1     -20.156  39.682 -23.325  0.00  0.00    +0.000 C 
ATOM     24  H   UNL     1     -22.838  38.888 -23.874  0.00  0.00    +0.000 HD
BRANCH  19  28
ATOM     25  C   UNL     1     -24.189  42.657 -24.805  0.00  0.00    +0.000 C 
ATOM     26  N   UNL     1     -23.936  41.645 -25.819  0.00  0.00    +0.000 N 
ATOM     27  C   UNL     1     -24.791  41.626 -26.995  0.00  0.00    +0.000 C 
ATOM     28  C   UNL     1     -22.954  40.660 -25.711  0.00  0.00    +0.000 C 
ATOM     29  O   UNL     1     -22.829  39.789 -26.576  0.00  0.00    +0.000 OA
ENDBRANCH  19  28
ENDBRANCH  18  23
ENDBRANCH   1  18
TORSDOF 7
ENDMDL
MODEL 5
REMARK VINA RESULT:    -4.367      1.766      2.279
REMARK INTER + INTRA:          -7.136
REMARK INTER:                  -6.231
REMARK INTRA:                  -0.905
REMARK UNBOUND:                -1.238
REMARK  Name = MEM
REMARK  11 active torsions:
REMARK  status: ('A' for Active; 'I' for Inactive)
REMARK    1  A    between atoms: C_1  and  N_2
REMARK    2  A    between atoms: N_2  and  C_3
REMARK    3  A    between atoms: C_4  and  C_6
REMARK    4  A    between atoms: C_10  and  S_11
REMARK    5  A    between atoms: S_11  and  C_12
REMARK    6  A    between atoms: C_13  and  C_14
REMARK    7  A    between atoms: C_16  and  C_17
REMARK    8  A    between atoms: C_17  and  C_18
REMARK    9  A    between atoms: C_17  and  O_19
REMARK   10  A    between atoms: C_23  and  C_24
REMARK   11  A    between atoms: C_24  and  O_26
REMARK                            x       y       z     vdW  Elec       q    Type
REMARK                         _______ _______ _______ _____ _____    ______ ____
ROOT
ATOM      1  C   UNL     1     -19.293  38.830 -23.760  0.00  0.00    +0.000 C 
ATOM      2  C   UNL     1     -20.118  37.559 -23.811  0.00  0.00    +0.000 C 
ATOM      3  C   UNL     1     -19.527  36.436 -22.958  0.00  0.00    +0.000 C 
ATOM      4  C   UNL     1     -20.070  37.219 -25.308  0.00  0.00    +0.000 C 
ATOM      5  C   UNL     1     -19.370  35.986 -25.965  0.00  0.00    +0.000 C 
ATOM      6  C   UNL     1     -18.184  36.956 -26.199  0.00  0.00    +0.000 C 
ATOM      7  O   UNL     1     -17.009  36.840 -26.446  0.00  0.00    +0.000 OA
ATOM      8  N   UNL     1     -18.955  38.037 -25.852  0.00  0.00    +0.000 N 
ATOM      9  C   UNL     1     -18.580  38.967 -24.896  0.00  0.00    +0.000 C 
ENDROOT
BRANCH   5  10
ATOM     10  C   UNL     1     -20.103  35.464 -27.188  0.00  0.00    +0.000 C 
ATOM     11  C   UNL     1     -21.457  36.133 -27.364  0.00  0.00    +0.000 C 
BRANCH  10  12
ATOM     12  O   UNL     1     -19.296  35.771 -28.327  0.00  0.00    +0.000 OA
ATOM     13  H   UNL     1     -18.530  35.170 -28.315  0.00  0.00    +0.000 HD
ENDBRANCH  10  12
ENDBRANCH   5  10
BRANCH   9  14
ATOM     14  C   UNL     1     -17.518  39.955 -25.186  0.00  0.00    +0.000 C 
ATOM     15  O   UNL     1     -16.912  40.648 -24.389  0.00  0.00    +0.000 OA
BRANCH  14  16
ATOM     16  O   UNL     1     -17.265  40.051 -26.509  0.00  0.00    +0.000 OA
ATOM     17  H   UNL     1     -17.255  39.123 -26.816  0.00  0.00    +0.000 HD
ENDBRANCH  14  16
ENDBRANCH   9  14
BRANCH   1  18
ATOM     18  S   UNL     1     -19.277  39.802 -22.336  0.00  0.00    +0.000 S 
BRANCH  18  23
ATOM     19  C   UNL     1     -22.260  42.490 -22.590  0.00  0.00    +0.000 C 
ATOM     20  C   UNL     1     -21.671  41.152 -23.044  0.00  0.00    +0.000 C 
ATOM     21  N   UNL     1     -21.431  42.825 -21.406  0.00  0.00    +0.000 NA
ATOM     22  C   UNL     1     -20.058  42.430 -21.783  0.00  0.00    +0.000 C 
ATOM     23  C   UNL     1     -20.165  41.323 -22.850  0.00  0.00    +0.000 C 
ATOM     24  H   UNL     1     -21.734  42.211 -20.641  0.00  0.00    +0.000 HD
BRANCH  19  28
ATOM     25  C   UNL     1     -24.392  43.268 -24.468  0.00  0.00    +0.000 C 
ATOM     26  N   UNL     1     -24.711  42.766 -23.142  0.00  0.00    +0.000 N 
ATOM     27  C   UNL     1     -26.112  42.683 -22.758  0.00  0.00    +0.000 C 
ATOM     28  C   UNL     1     -23.755  42.402 -22.193  0.00  0.00    +0.000 C 
ATOM     29  O   UNL     1     -24.086  42.042 -21.060  0.00  0.00    +0.000 OA
ENDBRANCH  19  28
ENDBRANCH  18  23
ENDBRANCH   1  18
TORSDOF 7
ENDMDL
MODEL 6
REMARK VINA RESULT:    -4.366      1.634      2.167
REMARK INTER + INTRA:          -7.135
REMARK INTER:                  -6.192
REMARK INTRA:                  -0.943
REMARK UNBOUND:                -1.238
REMARK  Name = MEM
REMARK  11 active torsions:
REMARK  status: ('A' for Active; 'I' for Inactive)
REMARK    1  A    between atoms: C_1  and  N_2
REMARK    2  A    between atoms: N_2  and  C_3
REMARK    3  A    between atoms: C_4  and  C_6
REMARK    4  A    between atoms: C_10  and  S_11
REMARK    5  A    between atoms: S_11  and  C_12
REMARK    6  A    between atoms: C_13  and  C_14
REMARK    7  A    between atoms: C_16  and  C_17
REMARK    8  A    between atoms: C_17  and  C_18
REMARK    9  A    between atoms: C_17  and  O_19
REMARK   10  A    between atoms: C_23  and  C_24
REMARK   11  A    between atoms: C_24  and  O_26
REMARK                            x       y       z     vdW  Elec       q    Type
REMARK                         _______ _______ _______ _____ _____    ______ ____
ROOT
ATOM      1  C   UNL     1     -20.257  36.210 -25.586  0.00  0.00    +0.000 C 
ATOM      2  C   UNL     1     -21.734  36.227 -25.932  0.00  0.00    +0.000 C 
ATOM      3  C   UNL     1     -22.489  35.030 -25.355  0.00  0.00    +0.000 C 
ATOM      4  C   UNL     1     -21.691  36.185 -27.467  0.00  0.00    +0.000 C 
ATOM      5  C   UNL     1     -22.182  35.020 -28.384  0.00  0.00    +0.000 C 
ATOM      6  C   UNL     1     -20.698  34.575 -28.382  0.00  0.00    +0.000 C 
ATOM      7  O   UNL     1     -20.100  33.560 -28.642  0.00  0.00    +0.000 OA
ATOM      8  N   UNL     1     -20.309  35.756 -27.801  0.00  0.00    +0.000 N 
ATOM      9  C   UNL     1     -19.533  35.823 -26.655  0.00  0.00    +0.000 C 
ENDROOT
BRANCH   5  10
ATOM     10  C   UNL     1     -22.770  35.502 -29.699  0.00  0.00    +0.000 C 
ATOM     11  C   UNL     1     -23.128  36.978 -29.651  0.00  0.00    +0.000 C 
BRANCH  10  12
ATOM     12  O   UNL     1     -21.770  35.311 -30.703  0.00  0.00    +0.000 OA
ATOM     13  H   UNL     1     -21.846  36.046 -31.337  0.00  0.00    +0.000 HD
ENDBRANCH  10  12
ENDBRANCH   5  10
BRANCH   9  14
ATOM     14  C   UNL     1     -18.091  35.499 -26.704  0.00  0.00    +0.000 C 
ATOM     15  O   UNL     1     -17.501  34.643 -26.068  0.00  0.00    +0.000 OA
BRANCH  14  16
ATOM     16  O   UNL     1     -17.422  36.298 -27.562  0.00  0.00    +0.000 OA
ATOM     17  H   UNL     1     -16.674  36.639 -27.034  0.00  0.00    +0.000 HD
ENDBRANCH  14  16
ENDBRANCH   9  14
BRANCH   1  18
ATOM     18  S   UNL     1     -19.736  36.545 -23.977  0.00  0.00    +0.000 S 
BRANCH  18  23
ATOM     19  C   UNL     1     -20.825  40.410 -23.719  0.00  0.00    +0.000 C 
ATOM     20  C   UNL     1     -20.735  39.136 -24.563  0.00  0.00    +0.000 C 
ATOM     21  N   UNL     1     -20.547  39.913 -22.350  0.00  0.00    +0.000 NA
ATOM     22  C   UNL     1     -19.467  38.919 -22.521  0.00  0.00    +0.000 C 
ATOM     23  C   UNL     1     -19.558  38.371 -23.959  0.00  0.00    +0.000 C 
ATOM     24  H   UNL     1     -21.385  39.412 -22.034  0.00  0.00    +0.000 HD
BRANCH  19  28
ATOM     25  C   UNL     1     -21.097  43.336 -23.938  0.00  0.00    +0.000 C 
ATOM     26  N   UNL     1     -22.270  42.477 -23.901  0.00  0.00    +0.000 N 
ATOM     27  C   UNL     1     -23.581  43.104 -23.947  0.00  0.00    +0.000 C 
ATOM     28  C   UNL     1     -22.217  41.088 -23.774  0.00  0.00    +0.000 C 
ATOM     29  O   UNL     1     -23.249  40.417 -23.684  0.00  0.00    +0.000 OA
ENDBRANCH  19  28
ENDBRANCH  18  23
ENDBRANCH   1  18
TORSDOF 7
ENDMDL
MODEL 7
REMARK VINA RESULT:    -4.306     16.354     19.673
REMARK INTER + INTRA:          -7.054
REMARK INTER:                  -6.496
REMARK INTRA:                  -0.558
REMARK UNBOUND:                -1.238
REMARK  Name = MEM
REMARK  11 active torsions:
REMARK  status: ('A' for Active; 'I' for Inactive)
REMARK    1  A    between atoms: C_1  and  N_2
REMARK    2  A    between atoms: N_2  and  C_3
REMARK    3  A    between atoms: C_4  and  C_6
REMARK    4  A    between atoms: C_10  and  S_11
REMARK    5  A    between atoms: S_11  and  C_12
REMARK    6  A    between atoms: C_13  and  C_14
REMARK    7  A    between atoms: C_16  and  C_17
REMARK    8  A    between atoms: C_17  and  C_18
REMARK    9  A    between atoms: C_17  and  O_19
REMARK   10  A    between atoms: C_23  and  C_24
REMARK   11  A    between atoms: C_24  and  O_26
REMARK                            x       y       z     vdW  Elec       q    Type
REMARK                         _______ _______ _______ _____ _____    ______ ____
ROOT
ATOM      1  C   UNL     1     -35.624  27.219 -25.518  0.00  0.00    +0.000 C 
ATOM      2  C   UNL     1     -34.353  27.880 -26.018  0.00  0.00    +0.000 C 
ATOM      3  C   UNL     1     -33.684  28.752 -24.957  0.00  0.00    +0.000 C 
ATOM      4  C   UNL     1     -34.885  28.719 -27.190  0.00  0.00    +0.000 C 
ATOM      5  C   UNL     1     -34.926  30.278 -27.280  0.00  0.00    +0.000 C 
ATOM      6  C   UNL     1     -36.389  30.132 -26.789  0.00  0.00    +0.000 C 
ATOM      7  O   UNL     1     -37.210  30.862 -26.293  0.00  0.00    +0.000 OA
ATOM      8  N   UNL     1     -36.355  28.774 -26.988  0.00  0.00    +0.000 N 
ATOM      9  C   UNL     1     -36.705  27.852 -26.016  0.00  0.00    +0.000 C 
ENDROOT
BRANCH   5  10
ATOM     10  C   UNL     1     -34.705  30.802 -28.689  0.00  0.00    +0.000 C 
ATOM     11  C   UNL     1     -33.362  31.501 -28.828  0.00  0.00    +0.000 C 
BRANCH  10  12
ATOM     12  O   UNL     1     -34.720  29.673 -29.565  0.00  0.00    +0.000 OA
ATOM     13  H   UNL     1     -33.818  29.559 -29.913  0.00  0.00    +0.000 HD
ENDBRANCH  10  12
ENDBRANCH   5  10
BRANCH   9  14
ATOM     14  C   UNL     1     -38.122  27.653 -25.644  0.00  0.00    +0.000 C 
ATOM     15  O   UNL     1     -38.732  28.185 -24.733  0.00  0.00    +0.000 OA
BRANCH  14  16
ATOM     16  O   UNL     1     -38.732  26.752 -26.443  0.00  0.00    +0.000 OA
ATOM     17  H   UNL     1     -39.646  27.090 -26.527  0.00  0.00    +0.000 HD
ENDBRANCH  14  16
ENDBRANCH   9  14
BRANCH   1  18
ATOM     18  S   UNL     1     -35.541  25.925 -24.381  0.00  0.00    +0.000 S 
BRANCH  18  23
ATOM     19  C   UNL     1     -32.891  22.955 -24.964  0.00  0.00    +0.000 C 
ATOM     20  C   UNL     1     -33.152  24.456 -24.810  0.00  0.00    +0.000 C 
ATOM     21  N   UNL     1     -34.171  22.355 -24.516  0.00  0.00    +0.000 NA
ATOM     22  C   UNL     1     -35.217  23.236 -25.076  0.00  0.00    +0.000 C 
ATOM     23  C   UNL     1     -34.597  24.633 -25.275  0.00  0.00    +0.000 C 
ATOM     24  H   UNL     1     -34.205  22.442 -23.494  0.00  0.00    +0.000 HD
BRANCH  19  28
ATOM     25  C   UNL     1     -30.091  23.580 -25.633  0.00  0.00    +0.000 C 
ATOM     26  N   UNL     1     -30.420  22.795 -24.454  0.00  0.00    +0.000 N 
ATOM     27  C   UNL     1     -29.328  22.304 -23.630  0.00  0.00    +0.000 C 
ATOM     28  C   UNL     1     -31.720  22.441 -24.090  0.00  0.00    +0.000 C 
ATOM     29  O   UNL     1     -31.933  21.718 -23.112  0.00  0.00    +0.000 OA
ENDBRANCH  19  28
ENDBRANCH  18  23
ENDBRANCH   1  18
TORSDOF 7
ENDMDL
MODEL 8
REMARK VINA RESULT:    -4.240     15.528     17.896
REMARK INTER + INTRA:          -6.966
REMARK INTER:                  -5.669
REMARK INTRA:                  -1.297
REMARK UNBOUND:                -1.238
REMARK  Name = MEM
REMARK  11 active torsions:
REMARK  status: ('A' for Active; 'I' for Inactive)
REMARK    1  A    between atoms: C_1  and  N_2
REMARK    2  A    between atoms: N_2  and  C_3
REMARK    3  A    between atoms: C_4  and  C_6
REMARK    4  A    between atoms: C_10  and  S_11
REMARK    5  A    between atoms: S_11  and  C_12
REMARK    6  A    between atoms: C_13  and  C_14
REMARK    7  A    between atoms: C_16  and  C_17
REMARK    8  A    between atoms: C_17  and  C_18
REMARK    9  A    between atoms: C_17  and  O_19
REMARK   10  A    between atoms: C_23  and  C_24
REMARK   11  A    between atoms: C_24  and  O_26
REMARK                            x       y       z     vdW  Elec       q    Type
REMARK                         _______ _______ _______ _____ _____    ______ ____
ROOT
ATOM      1  C   UNL     1     -28.499  23.998 -28.183  0.00  0.00    +0.000 C 
ATOM      2  C   UNL     1     -28.890  22.614 -27.700  0.00  0.00    +0.000 C 
ATOM      3  C   UNL     1     -29.722  21.844 -28.725  0.00  0.00    +0.000 C 
ATOM      4  C   UNL     1     -29.707  22.947 -26.442  0.00  0.00    +0.000 C 
ATOM      5  C   UNL     1     -31.237  22.714 -26.232  0.00  0.00    +0.000 C 
ATOM      6  C   UNL     1     -31.383  24.197 -26.656  0.00  0.00    +0.000 C 
ATOM      7  O   UNL     1     -32.281  24.898 -27.052  0.00  0.00    +0.000 OA
ATOM      8  N   UNL     1     -30.028  24.392 -26.563  0.00  0.00    +0.000 N 
ATOM      9  C   UNL     1     -29.263  24.933 -27.583  0.00  0.00    +0.000 C 
ENDROOT
BRANCH   5  10
ATOM     10  C   UNL     1     -31.596  22.353 -24.801  0.00  0.00    +0.000 C 
ATOM     11  C   UNL     1     -30.359  22.142 -23.943  0.00  0.00    +0.000 C 
BRANCH  10  12
ATOM     12  O   UNL     1     -32.338  23.450 -24.262  0.00  0.00    +0.000 OA
ATOM     13  H   UNL     1     -33.172  23.513 -24.759  0.00  0.00    +0.000 HD
ENDBRANCH  10  12
ENDBRANCH   5  10
BRANCH   9  14
ATOM     14  C   UNL     1     -29.339  26.377 -27.895  0.00  0.00    +0.000 C 
ATOM     15  O   UNL     1     -30.069  26.924 -28.702  0.00  0.00    +0.000 OA
BRANCH  14  16
ATOM     16  O   UNL     1     -28.455  27.097 -27.172  0.00  0.00    +0.000 OA
ATOM     17  H   UNL     1     -29.002  27.790 -26.752  0.00  0.00    +0.000 HD
ENDBRANCH  14  16
ENDBRANCH   9  14
BRANCH   1  18
ATOM     18  S   UNL     1     -27.310  24.184 -29.417  0.00  0.00    +0.000 S 
BRANCH  18  23
ATOM     19  C   UNL     1     -24.920  22.549 -26.624  0.00  0.00    +0.000 C 
ATOM     20  C   UNL     1     -25.788  23.731 -27.066  0.00  0.00    +0.000 C 
ATOM     21  N   UNL     1     -25.296  21.490 -27.592  0.00  0.00    +0.000 NA
ATOM     22  C   UNL     1     -25.422  22.190 -28.887  0.00  0.00    +0.000 C 
ATOM     23  C   UNL     1     -25.756  23.666 -28.592  0.00  0.00    +0.000 C 
ATOM     24  H   UNL     1     -26.230  21.155 -27.327  0.00  0.00    +0.000 HD
BRANCH  19  28
ATOM     25  C   UNL     1     -22.741  22.120 -24.689  0.00  0.00    +0.000 C 
ATOM     26  N   UNL     1     -24.129  21.921 -24.307  0.00  0.00    +0.000 N 
ATOM     27  C   UNL     1     -24.410  21.478 -22.950  0.00  0.00    +0.000 C 
ATOM     28  C   UNL     1     -25.209  22.082 -25.175  0.00  0.00    +0.000 C 
ATOM     29  O   UNL     1     -26.362  21.836 -24.810  0.00  0.00    +0.000 OA
ENDBRANCH  19  28
ENDBRANCH  18  23
ENDBRANCH   1  18
TORSDOF 7
ENDMDL
MODEL 9
REMARK VINA RESULT:    -4.184      2.763      7.922
REMARK INTER + INTRA:          -6.890
REMARK INTER:                  -5.652
REMARK INTRA:                  -1.238
REMARK UNBOUND:                -1.238
REMARK  Name = MEM
REMARK  11 active torsions:
REMARK  status: ('A' for Active; 'I' for Inactive)
REMARK    1  A    between atoms: C_1  and  N_2
REMARK    2  A    between atoms: N_2  and  C_3
REMARK    3  A    between atoms: C_4  and  C_6
REMARK    4  A    between atoms: C_10  and  S_11
REMARK    5  A    between atoms: S_11  and  C_12
REMARK    6  A    between atoms: C_13  and  C_14
REMARK    7  A    between atoms: C_16  and  C_17
REMARK    8  A    between atoms: C_17  and  C_18
REMARK    9  A    between atoms: C_17  and  O_19
REMARK   10  A    between atoms: C_23  and  C_24
REMARK   11  A    between atoms: C_24  and  O_26
REMARK                            x       y       z     vdW  Elec       q    Type
REMARK                         _______ _______ _______ _____ _____    ______ ____
ROOT
ATOM      1  C   UNL     1     -23.215  41.076 -24.903  0.00  0.00    +0.000 C 
ATOM      2  C   UNL     1     -24.136  41.729 -23.891  0.00  0.00    +0.000 C 
ATOM      3  C   UNL     1     -24.287  43.233 -24.115  0.00  0.00    +0.000 C 
ATOM      4  C   UNL     1     -23.411  41.422 -22.572  0.00  0.00    +0.000 C 
ATOM      5  C   UNL     1     -22.736  42.455 -21.614  0.00  0.00    +0.000 C 
ATOM      6  C   UNL     1     -21.428  42.085 -22.359  0.00  0.00    +0.000 C 
ATOM      7  O   UNL     1     -20.338  42.584 -22.488  0.00  0.00    +0.000 OA
ATOM      8  N   UNL     1     -22.039  41.020 -22.972  0.00  0.00    +0.000 N 
ATOM      9  C   UNL     1     -22.018  40.814 -24.341  0.00  0.00    +0.000 C 
ENDROOT
BRANCH   5  10
ATOM     10  C   UNL     1     -22.843  42.071 -20.148  0.00  0.00    +0.000 C 
ATOM     11  C   UNL     1     -22.067  43.026 -19.255  0.00  0.00    +0.000 C 
BRANCH  10  12
ATOM     12  O   UNL     1     -24.227  42.145 -19.794  0.00  0.00    +0.000 OA
ATOM     13  H   UNL     1     -24.720  41.579 -20.414  0.00  0.00    +0.000 HD
ENDBRANCH  10  12
ENDBRANCH   5  10
BRANCH   9  14
ATOM     14  C   UNL     1     -20.783  40.353 -25.013  0.00  0.00    +0.000 C 
ATOM     15  O   UNL     1     -20.413  39.204 -25.179  0.00  0.00    +0.000 OA
BRANCH  14  16
ATOM     16  O   UNL     1     -20.028  41.385 -25.446  0.00  0.00    +0.000 OA
ATOM     17  H   UNL     1     -20.039  41.294 -26.419  0.00  0.00    +0.000 HD
ENDBRANCH  14  16
ENDBRANCH   9  14
BRANCH   1  18
ATOM     18  S   UNL     1     -23.725  40.869 -26.537  0.00  0.00    +0.000 S 
BRANCH  18  23
ATOM     19  C   UNL     1     -23.073  36.912 -26.859  0.00  0.00    +0.000 C 
ATOM     20  C   UNL     1     -23.184  38.274 -27.550  0.00  0.00    +0.000 C 
ATOM     21  N   UNL     1     -23.000  37.280 -25.424  0.00  0.00    +0.000 NA
ATOM     22  C   UNL     1     -23.966  38.388 -25.269  0.00  0.00    +0.000 C 
ATOM     23  C   UNL     1     -24.111  39.079 -26.639  0.00  0.00    +0.000 C 
ATOM     24  H   UNL     1     -22.061  37.660 -25.256  0.00  0.00    +0.000 HD
BRANCH  19  28
ATOM     25  C   UNL     1     -23.210  34.786 -28.894  0.00  0.00    +0.000 C 
ATOM     26  N   UNL     1     -21.948  35.134 -28.261  0.00  0.00    +0.000 N 
ATOM     27  C   UNL     1     -20.761  34.386 -28.641  0.00  0.00    +0.000 C 
ATOM     28  C   UNL     1     -21.813  36.112 -27.275  0.00  0.00    +0.000 C 
ATOM     29  O   UNL     1     -20.726  36.319 -26.728  0.00  0.00    +0.000 OA
ENDBRANCH  19  28
ENDBRANCH  18  23
ENDBRANCH   1  18
TORSDOF 7
ENDMDL
MODEL 10
REMARK VINA RESULT:    -4.122     15.112     17.607
REMARK INTER + INTRA:          -6.806
REMARK INTER:                  -5.741
REMARK INTRA:                  -1.065
REMARK UNBOUND:                -1.238
REMARK  Name = MEM
REMARK  11 active torsions:
REMARK  status: ('A' for Active; 'I' for Inactive)
REMARK    1  A    between atoms: C_1  and  N_2
REMARK    2  A    between atoms: N_2  and  C_3
REMARK    3  A    between atoms: C_4  and  C_6
REMARK    4  A    between atoms: C_10  and  S_11
REMARK    5  A    between atoms: S_11  and  C_12
REMARK    6  A    between atoms: C_13  and  C_14
REMARK    7  A    between atoms: C_16  and  C_17
REMARK    8  A    between atoms: C_17  and  C_18
REMARK    9  A    between atoms: C_17  and  O_19
REMARK   10  A    between atoms: C_23  and  C_24
REMARK   11  A    between atoms: C_24  and  O_26
REMARK                            x       y       z     vdW  Elec       q    Type
REMARK                         _______ _______ _______ _____ _____    ______ ____
ROOT
ATOM      1  C   UNL     1     -28.605  24.101 -28.424  0.00  0.00    +0.000 C 
ATOM      2  C   UNL     1     -28.741  22.694 -27.874  0.00  0.00    +0.000 C 
ATOM      3  C   UNL     1     -29.761  21.855 -28.645  0.00  0.00    +0.000 C 
ATOM      4  C   UNL     1     -29.205  22.969 -26.436  0.00  0.00    +0.000 C 
ATOM      5  C   UNL     1     -30.597  22.619 -25.819  0.00  0.00    +0.000 C 
ATOM      6  C   UNL     1     -30.966  24.084 -26.164  0.00  0.00    +0.000 C 
ATOM      7  O   UNL     1     -31.989  24.710 -26.288  0.00  0.00    +0.000 OA
ATOM      8  N   UNL     1     -29.656  24.384 -26.441  0.00  0.00    +0.000 N 
ATOM      9  C   UNL     1     -29.244  24.977 -27.623  0.00  0.00    +0.000 C 
ENDROOT
BRANCH   5  10
ATOM     10  C   UNL     1     -30.522  22.238 -24.350  0.00  0.00    +0.000 C 
ATOM     11  C   UNL     1     -29.090  22.235 -23.840  0.00  0.00    +0.000 C 
BRANCH  10  12
ATOM     12  O   UNL     1     -31.259  23.224 -23.622  0.00  0.00    +0.000 OA
ATOM     13  H   UNL     1     -31.806  23.714 -24.261  0.00  0.00    +0.000 HD
ENDBRANCH  10  12
ENDBRANCH   5  10
BRANCH   9  14
ATOM     14  C   UNL     1     -29.513  26.409 -27.879  0.00  0.00    +0.000 C 
ATOM     15  O   UNL     1     -30.522  26.901 -28.352  0.00  0.00    +0.000 OA
BRANCH  14  16
ATOM     16  O   UNL     1     -28.465  27.189 -27.539  0.00  0.00    +0.000 OA
ATOM     17  H   UNL     1     -27.687  26.697 -27.868  0.00  0.00    +0.000 HD
ENDBRANCH  14  16
ENDBRANCH   9  14
BRANCH   1  18
ATOM     18  S   UNL     1     -27.817  24.373 -29.933  0.00  0.00    +0.000 S 
BRANCH  18  23
ATOM     19  C   UNL     1     -24.007  23.823 -28.760  0.00  0.00    +0.000 C 
ATOM     20  C   UNL     1     -25.489  23.895 -28.381  0.00  0.00    +0.000 C 
ATOM     21  N   UNL     1     -24.054  23.747 -30.240  0.00  0.00    +0.000 NA
ATOM     22  C   UNL     1     -25.127  24.684 -30.633  0.00  0.00    +0.000 C 
ATOM     23  C   UNL     1     -26.102  24.805 -29.446  0.00  0.00    +0.000 C 
ATOM     24  H   UNL     1     -24.363  22.799 -30.485  0.00  0.00    +0.000 HD
BRANCH  19  28
ATOM     25  C   UNL     1     -21.169  23.932 -27.979  0.00  0.00    +0.000 C 
ATOM     26  N   UNL     1     -21.944  22.714 -27.809  0.00  0.00    +0.000 N 
ATOM     27  C   UNL     1     -21.273  21.543 -27.269  0.00  0.00    +0.000 C 
ATOM     28  C   UNL     1     -23.283  22.583 -28.179  0.00  0.00    +0.000 C 
ATOM     29  O   UNL     1     -23.872  21.503 -28.070  0.00  0.00    +0.000 OA
ENDBRANCH  19  28
ENDBRANCH  18  23
ENDBRANCH   1  18
TORSDOF 7
ENDMDL
