MODEL 1
REMARK VINA RESULT:    -3.775      0.000      0.000
REMARK INTER + INTRA:          -5.709
REMARK INTER:                  -4.795
REMARK INTRA:                  -0.913
REMARK UNBOUND:                -0.610
REMARK  Name = 26757
REMARK  7 active torsions:
REMARK  status: ('A' for Active; 'I' for Inactive)
REMARK    1  A    between atoms: N_1  and  C_2
REMARK    2  A    between atoms: N_1  and  C_6
REMARK    3  A    between atoms: N_1  and  C_7
REMARK    4  A    between atoms: C_2  and  C_3
REMARK    5  A    between atoms: C_2  and  C_4
REMARK    6  A    between atoms: C_3  and  C_5
REMARK    7  A    between atoms: C_6  and  C_13
REMARK                            x       y       z     vdW  Elec       q    Type
REMARK                         _______ _______ _______ _____ _____    ______ ____
ROOT
ATOM      1  C   UNL     1     -30.463  22.970 -26.637  0.00  0.00    +0.000 C 
ATOM      2  H   UNL     1     -29.989  23.961 -26.583  0.00  0.00    +0.000 HD
ENDROOT
BRANCH   1   3
ATOM      3  C   UNL     1     -31.959  23.285 -26.825  0.00  0.00    +0.000 C 
ATOM      4  H   UNL     1     -32.139  23.793 -27.778  0.00  0.00    +0.000 HD
ATOM      5  H   UNL     1     -32.548  22.360 -26.860  0.00  0.00    +0.000 HD
ATOM      6  H   UNL     1     -32.360  23.912 -26.025  0.00  0.00    +0.000 HD
ENDBRANCH   1   3
BRANCH   1   7
ATOM      7  C   UNL     1     -29.892  22.320 -27.938  0.00  0.00    +0.000 C 
ATOM      8  H   UNL     1     -30.088  21.241 -27.887  0.00  0.00    +0.000 HD
ATOM      9  H   UNL     1     -30.505  22.687 -28.774  0.00  0.00    +0.000 HD
BRANCH   7  10
ATOM     10  C   UNL     1     -28.448  22.484 -28.377  0.00  0.00    +0.000 A 
ATOM     11  C   UNL     1     -27.475  21.485 -28.328  0.00  0.00    +0.000 A 
ATOM     12  C   UNL     1     -28.063  23.758 -28.843  0.00  0.00    +0.000 A 
ATOM     13  C   UNL     1     -26.144  21.768 -28.665  0.00  0.00    +0.000 A 
ATOM     14  C   UNL     1     -26.738  24.045 -29.170  0.00  0.00    +0.000 A 
ATOM     15  C   UNL     1     -25.773  23.051 -29.063  0.00  0.00    +0.000 A 
ATOM     16  H   UNL     1     -27.720  20.478 -28.003  0.00  0.00    +0.000 HD
ATOM     17  H   UNL     1     -28.804  24.551 -28.930  0.00  0.00    +0.000 HD
ATOM     18  H   UNL     1     -25.392  20.986 -28.599  0.00  0.00    +0.000 HD
ATOM     19  H   UNL     1     -26.462  25.044 -29.494  0.00  0.00    +0.000 HD
ATOM     20  H   UNL     1     -24.733  23.276 -29.285  0.00  0.00    +0.000 HD
ENDBRANCH   7  10
ENDBRANCH   1   7
BRANCH   1  21
ATOM     21  N   UNL     1     -30.156  22.253 -25.371  0.00  0.00    +0.000 NA
BRANCH  21  22
ATOM     22  C   UNL     1     -31.350  21.885 -24.604  0.00  0.00    +0.000 C 
ATOM     23  H   UNL     1     -31.125  21.799 -23.537  0.00  0.00    +0.000 HD
ATOM     24  H   UNL     1     -32.116  22.667 -24.673  0.00  0.00    +0.000 HD
ATOM     25  H   UNL     1     -31.794  20.943 -24.943  0.00  0.00    +0.000 HD
ENDBRANCH  21  22
BRANCH  21  26
ATOM     26  C   UNL     1     -29.205  22.975 -24.501  0.00  0.00    +0.000 C 
ATOM     27  H   UNL     1     -29.321  24.057 -24.656  0.00  0.00    +0.000 HD
ATOM     28  H   UNL     1     -29.461  22.820 -23.448  0.00  0.00    +0.000 HD
BRANCH  26  29
ATOM     29  C   UNL     1     -27.791  22.609 -24.724  0.00  0.00    +0.000 C 
ATOM     30  C   UNL     1     -26.643  22.296 -24.901  0.00  0.00    +0.000 C 
ATOM     31  H   UNL     1     -25.630  22.006 -25.035  0.00  0.00    +0.000 HD
ENDBRANCH  26  29
ENDBRANCH  21  26
ENDBRANCH   1  21
TORSDOF 7
ENDMDL
MODEL 2
REMARK VINA RESULT:    -3.634      2.364      5.655
REMARK INTER + INTRA:          -5.519
REMARK INTER:                  -4.703
REMARK INTRA:                  -0.816
REMARK UNBOUND:                -0.610
REMARK  Name = 26757
REMARK  7 active torsions:
REMARK  status: ('A' for Active; 'I' for Inactive)
REMARK    1  A    between atoms: N_1  and  C_2
REMARK    2  A    between atoms: N_1  and  C_6
REMARK    3  A    between atoms: N_1  and  C_7
REMARK    4  A    between atoms: C_2  and  C_3
REMARK    5  A    between atoms: C_2  and  C_4
REMARK    6  A    between atoms: C_3  and  C_5
REMARK    7  A    between atoms: C_6  and  C_13
REMARK                            x       y       z     vdW  Elec       q    Type
REMARK                         _______ _______ _______ _____ _____    ______ ____
ROOT
ATOM      1  C   UNL     1     -25.122  22.827 -28.635  0.00  0.00    +0.000 C 
ATOM      2  H   UNL     1     -25.306  23.443 -27.743  0.00  0.00    +0.000 HD
ENDROOT
BRANCH   1   3
ATOM      3  C   UNL     1     -23.806  22.094 -28.313  0.00  0.00    +0.000 C 
ATOM      4  H   UNL     1     -23.268  22.588 -27.497  0.00  0.00    +0.000 HD
ATOM      5  H   UNL     1     -24.008  21.073 -27.967  0.00  0.00    +0.000 HD
ATOM      6  H   UNL     1     -23.137  22.034 -29.174  0.00  0.00    +0.000 HD
ENDBRANCH   1   3
BRANCH   1   7
ATOM      7  C   UNL     1     -26.304  21.805 -28.669  0.00  0.00    +0.000 C 
ATOM      8  H   UNL     1     -26.480  21.533 -29.718  0.00  0.00    +0.000 HD
ATOM      9  H   UNL     1     -25.943  20.884 -28.188  0.00  0.00    +0.000 HD
BRANCH   7  10
ATOM     10  C   UNL     1     -27.661  22.092 -28.055  0.00  0.00    +0.000 A 
ATOM     11  C   UNL     1     -28.889  21.898 -28.691  0.00  0.00    +0.000 A 
ATOM     12  C   UNL     1     -27.671  22.624 -26.749  0.00  0.00    +0.000 A 
ATOM     13  C   UNL     1     -30.084  22.288 -28.071  0.00  0.00    +0.000 A 
ATOM     14  C   UNL     1     -28.858  23.021 -26.133  0.00  0.00    +0.000 A 
ATOM     15  C   UNL     1     -30.066  22.870 -26.804  0.00  0.00    +0.000 A 
ATOM     16  H   UNL     1     -28.943  21.467 -29.686  0.00  0.00    +0.000 HD
ATOM     17  H   UNL     1     -26.735  22.753 -26.208  0.00  0.00    +0.000 HD
ATOM     18  H   UNL     1     -31.029  22.153 -28.588  0.00  0.00    +0.000 HD
ATOM     19  H   UNL     1     -28.835  23.460 -25.140  0.00  0.00    +0.000 HD
ATOM     20  H   UNL     1     -30.990  23.208 -26.344  0.00  0.00    +0.000 HD
ENDBRANCH   7  10
ENDBRANCH   1   7
BRANCH   1  21
ATOM     21  N   UNL     1     -25.028  23.741 -29.804  0.00  0.00    +0.000 NA
BRANCH  21  22
ATOM     22  C   UNL     1     -23.650  24.091 -30.162  0.00  0.00    +0.000 C 
ATOM     23  H   UNL     1     -23.602  25.075 -30.639  0.00  0.00    +0.000 HD
ATOM     24  H   UNL     1     -23.022  24.177 -29.265  0.00  0.00    +0.000 HD
ATOM     25  H   UNL     1     -23.189  23.357 -30.831  0.00  0.00    +0.000 HD
ENDBRANCH  21  22
BRANCH  21  26
ATOM     26  C   UNL     1     -25.835  24.970 -29.657  0.00  0.00    +0.000 C 
ATOM     27  H   UNL     1     -26.007  25.166 -28.590  0.00  0.00    +0.000 HD
ATOM     28  H   UNL     1     -25.269  25.839 -30.008  0.00  0.00    +0.000 HD
BRANCH  26  29
ATOM     29  C   UNL     1     -27.139  24.918 -30.351  0.00  0.00    +0.000 C 
ATOM     30  C   UNL     1     -28.193  24.870 -30.928  0.00  0.00    +0.000 C 
ATOM     31  H   UNL     1     -29.112  24.838 -31.460  0.00  0.00    +0.000 HD
ENDBRANCH  26  29
ENDBRANCH  21  26
ENDBRANCH   1  21
TORSDOF 7
ENDMDL
MODEL 3
REMARK VINA RESULT:    -3.550      2.365      3.599
REMARK INTER + INTRA:          -5.406
REMARK INTER:                  -4.334
REMARK INTRA:                  -1.072
REMARK UNBOUND:                -0.610
REMARK  Name = 26757
REMARK  7 active torsions:
REMARK  status: ('A' for Active; 'I' for Inactive)
REMARK    1  A    between atoms: N_1  and  C_2
REMARK    2  A    between atoms: N_1  and  C_6
REMARK    3  A    between atoms: N_1  and  C_7
REMARK    4  A    between atoms: C_2  and  C_3
REMARK    5  A    between atoms: C_2  and  C_4
REMARK    6  A    between atoms: C_3  and  C_5
REMARK    7  A    between atoms: C_6  and  C_13
REMARK                            x       y       z     vdW  Elec       q    Type
REMARK                         _______ _______ _______ _____ _____    ______ ____
ROOT
ATOM      1  C   UNL     1     -33.651  23.390 -25.069  0.00  0.00    +0.000 C 
ATOM      2  H   UNL     1     -33.135  24.224 -24.571  0.00  0.00    +0.000 HD
ENDROOT
BRANCH   1   3
ATOM      3  C   UNL     1     -35.132  23.813 -25.059  0.00  0.00    +0.000 C 
ATOM      4  H   UNL     1     -35.505  23.922 -24.035  0.00  0.00    +0.000 HD
ATOM      5  H   UNL     1     -35.257  24.794 -25.532  0.00  0.00    +0.000 HD
ATOM      6  H   UNL     1     -35.776  23.100 -25.581  0.00  0.00    +0.000 HD
ENDBRANCH   1   3
BRANCH   1   7
ATOM      7  C   UNL     1     -33.107  23.397 -26.534  0.00  0.00    +0.000 C 
ATOM      8  H   UNL     1     -33.486  22.497 -27.035  0.00  0.00    +0.000 HD
ATOM      9  H   UNL     1     -33.590  24.241 -27.049  0.00  0.00    +0.000 HD
BRANCH   7  10
ATOM     10  C   UNL     1     -31.630  23.498 -26.866  0.00  0.00    +0.000 A 
ATOM     11  C   UNL     1     -30.853  22.465 -27.395  0.00  0.00    +0.000 A 
ATOM     12  C   UNL     1     -30.995  24.725 -26.587  0.00  0.00    +0.000 A 
ATOM     13  C   UNL     1     -29.472  22.630 -27.573  0.00  0.00    +0.000 A 
ATOM     14  C   UNL     1     -29.620  24.889 -26.755  0.00  0.00    +0.000 A 
ATOM     15  C   UNL     1     -28.854  23.832 -27.232  0.00  0.00    +0.000 A 
ATOM     16  H   UNL     1     -31.294  21.507 -27.654  0.00  0.00    +0.000 HD
ATOM     17  H   UNL     1     -31.577  25.564 -26.209  0.00  0.00    +0.000 HD
ATOM     18  H   UNL     1     -28.877  21.809 -27.963  0.00  0.00    +0.000 HD
ATOM     19  H   UNL     1     -29.149  25.834 -26.500  0.00  0.00    +0.000 HD
ATOM     20  H   UNL     1     -27.778  23.942 -27.334  0.00  0.00    +0.000 HD
ENDBRANCH   7  10
ENDBRANCH   1   7
BRANCH   1  21
ATOM     21  N   UNL     1     -33.375  22.156 -24.286  0.00  0.00    +0.000 NA
BRANCH  21  22
ATOM     22  C   UNL     1     -34.587  21.481 -23.815  0.00  0.00    +0.000 C 
ATOM     23  H   UNL     1     -35.408  21.596 -24.529  0.00  0.00    +0.000 HD
ATOM     24  H   UNL     1     -34.427  20.398 -23.736  0.00  0.00    +0.000 HD
ATOM     25  H   UNL     1     -34.920  21.847 -22.838  0.00  0.00    +0.000 HD
ENDBRANCH  21  22
BRANCH  21  26
ATOM     26  C   UNL     1     -32.449  22.371 -23.155  0.00  0.00    +0.000 C 
ATOM     27  H   UNL     1     -32.644  23.355 -22.708  0.00  0.00    +0.000 HD
ATOM     28  H   UNL     1     -32.660  21.658 -22.352  0.00  0.00    +0.000 HD
BRANCH  26  29
ATOM     29  C   UNL     1     -31.020  22.288 -23.525  0.00  0.00    +0.000 C 
ATOM     30  C   UNL     1     -29.854  22.225 -23.811  0.00  0.00    +0.000 C 
ATOM     31  H   UNL     1     -28.819  22.193 -24.052  0.00  0.00    +0.000 HD
ENDBRANCH  26  29
ENDBRANCH  21  26
ENDBRANCH   1  21
TORSDOF 7
ENDMDL
MODEL 4
REMARK VINA RESULT:    -3.533     18.627     20.132
REMARK INTER + INTRA:          -5.382
REMARK INTER:                  -4.562
REMARK INTRA:                  -0.820
REMARK UNBOUND:                -0.610
REMARK  Name = 26757
REMARK  7 active torsions:
REMARK  status: ('A' for Active; 'I' for Inactive)
REMARK    1  A    between atoms: N_1  and  C_2
REMARK    2  A    between atoms: N_1  and  C_6
REMARK    3  A    between atoms: N_1  and  C_7
REMARK    4  A    between atoms: C_2  and  C_3
REMARK    5  A    between atoms: C_2  and  C_4
REMARK    6  A    between atoms: C_3  and  C_5
REMARK    7  A    between atoms: C_6  and  C_13
REMARK                            x       y       z     vdW  Elec       q    Type
REMARK                         _______ _______ _______ _____ _____    ______ ____
ROOT
ATOM      1  C   UNL     1     -20.898  41.358 -24.525  0.00  0.00    +0.000 C 
ATOM      2  H   UNL     1     -21.367  40.449 -24.121  0.00  0.00    +0.000 HD
ENDROOT
BRANCH   1   3
ATOM      3  C   UNL     1     -19.412  40.976 -24.664  0.00  0.00    +0.000 C 
ATOM      4  H   UNL     1     -18.979  40.716 -23.692  0.00  0.00    +0.000 HD
ATOM      5  H   UNL     1     -19.299  40.086 -25.294  0.00  0.00    +0.000 HD
ATOM      6  H   UNL     1     -18.812  41.778 -25.099  0.00  0.00    +0.000 HD
ENDBRANCH   1   3
BRANCH   1   7
ATOM      7  C   UNL     1     -21.532  41.543 -25.941  0.00  0.00    +0.000 C 
ATOM      8  H   UNL     1     -21.588  42.620 -26.144  0.00  0.00    +0.000 HD
ATOM      9  H   UNL     1     -20.809  41.147 -26.669  0.00  0.00    +0.000 HD
BRANCH   7  10
ATOM     10  C   UNL     1     -22.876  40.952 -26.327  0.00  0.00    +0.000 A 
ATOM     11  C   UNL     1     -23.957  41.677 -26.832  0.00  0.00    +0.000 A 
ATOM     12  C   UNL     1     -23.045  39.566 -26.129  0.00  0.00    +0.000 A 
ATOM     13  C   UNL     1     -25.189  41.051 -27.065  0.00  0.00    +0.000 A 
ATOM     14  C   UNL     1     -24.273  38.943 -26.351  0.00  0.00    +0.000 A 
ATOM     15  C   UNL     1     -25.353  39.692 -26.803  0.00  0.00    +0.000 A 
ATOM     16  H   UNL     1     -23.875  42.741 -27.030  0.00  0.00    +0.000 HD
ATOM     17  H   UNL     1     -22.212  38.963 -25.772  0.00  0.00    +0.000 HD
ATOM     18  H   UNL     1     -26.028  41.633 -27.436  0.00  0.00    +0.000 HD
ATOM     19  H   UNL     1     -24.386  37.881 -26.158  0.00  0.00    +0.000 HD
ATOM     20  H   UNL     1     -26.321  39.219 -26.946  0.00  0.00    +0.000 HD
ENDBRANCH   7  10
ENDBRANCH   1   7
BRANCH   1  21
ATOM     21  N   UNL     1     -21.146  42.462 -23.559  0.00  0.00    +0.000 NA
BRANCH  21  22
ATOM     22  C   UNL     1     -19.956  42.845 -22.794  0.00  0.00    +0.000 C 
ATOM     23  H   UNL     1     -19.882  42.275 -21.863  0.00  0.00    +0.000 HD
ATOM     24  H   UNL     1     -19.040  42.608 -23.349  0.00  0.00    +0.000 HD
ATOM     25  H   UNL     1     -19.939  43.913 -22.550  0.00  0.00    +0.000 HD
ENDBRANCH  21  22
BRANCH  21  26
ATOM     26  C   UNL     1     -22.270  42.197 -22.639  0.00  0.00    +0.000 C 
ATOM     27  H   UNL     1     -22.336  41.117 -22.447  0.00  0.00    +0.000 HD
ATOM     28  H   UNL     1     -22.068  42.638 -21.657  0.00  0.00    +0.000 HD
BRANCH  26  29
ATOM     29  C   UNL     1     -23.577  42.675 -23.135  0.00  0.00    +0.000 C 
ATOM     30  C   UNL     1     -24.634  43.076 -23.546  0.00  0.00    +0.000 C 
ATOM     31  H   UNL     1     -25.560  43.455 -23.905  0.00  0.00    +0.000 HD
ENDBRANCH  26  29
ENDBRANCH  21  26
ENDBRANCH   1  21
TORSDOF 7
ENDMDL
MODEL 5
REMARK VINA RESULT:    -3.523     18.961     20.186
REMARK INTER + INTRA:          -5.368
REMARK INTER:                  -4.524
REMARK INTRA:                  -0.844
REMARK UNBOUND:                -0.610
REMARK  Name = 26757
REMARK  7 active torsions:
REMARK  status: ('A' for Active; 'I' for Inactive)
REMARK    1  A    between atoms: N_1  and  C_2
REMARK    2  A    between atoms: N_1  and  C_6
REMARK    3  A    between atoms: N_1  and  C_7
REMARK    4  A    between atoms: C_2  and  C_3
REMARK    5  A    between atoms: C_2  and  C_4
REMARK    6  A    between atoms: C_3  and  C_5
REMARK    7  A    between atoms: C_6  and  C_13
REMARK                            x       y       z     vdW  Elec       q    Type
REMARK                         _______ _______ _______ _____ _____    ______ ____
ROOT
ATOM      1  C   UNL     1     -23.759  42.457 -22.112  0.00  0.00    +0.000 C 
ATOM      2  H   UNL     1     -23.419  43.370 -21.601  0.00  0.00    +0.000 HD
ENDROOT
BRANCH   1   3
ATOM      3  C   UNL     1     -24.605  41.732 -21.048  0.00  0.00    +0.000 C 
ATOM      4  H   UNL     1     -25.561  42.242 -20.888  0.00  0.00    +0.000 HD
ATOM      5  H   UNL     1     -24.856  40.717 -21.379  0.00  0.00    +0.000 HD
ATOM      6  H   UNL     1     -24.095  41.657 -20.085  0.00  0.00    +0.000 HD
ENDBRANCH   1   3
BRANCH   1   7
ATOM      7  C   UNL     1     -24.682  42.962 -23.268  0.00  0.00    +0.000 C 
ATOM      8  H   UNL     1     -25.647  43.241 -22.827  0.00  0.00    +0.000 HD
ATOM      9  H   UNL     1     -24.247  43.903 -23.635  0.00  0.00    +0.000 HD
BRANCH   7  10
ATOM     10  C   UNL     1     -24.986  42.133 -24.503  0.00  0.00    +0.000 A 
ATOM     11  C   UNL     1     -25.680  40.922 -24.507  0.00  0.00    +0.000 A 
ATOM     12  C   UNL     1     -24.498  42.619 -25.733  0.00  0.00    +0.000 A 
ATOM     13  C   UNL     1     -25.823  40.186 -25.691  0.00  0.00    +0.000 A 
ATOM     14  C   UNL     1     -24.630  41.884 -26.911  0.00  0.00    +0.000 A 
ATOM     15  C   UNL     1     -25.279  40.655 -26.886  0.00  0.00    +0.000 A 
ATOM     16  H   UNL     1     -26.101  40.514 -23.593  0.00  0.00    +0.000 HD
ATOM     17  H   UNL     1     -23.985  43.578 -25.773  0.00  0.00    +0.000 HD
ATOM     18  H   UNL     1     -26.345  39.233 -25.674  0.00  0.00    +0.000 HD
ATOM     19  H   UNL     1     -24.216  42.265 -27.840  0.00  0.00    +0.000 HD
ATOM     20  H   UNL     1     -25.356  40.062 -27.793  0.00  0.00    +0.000 HD
ENDBRANCH   7  10
ENDBRANCH   1   7
BRANCH   1  21
ATOM     21  N   UNL     1     -22.552  41.699 -22.536  0.00  0.00    +0.000 NA
BRANCH  21  22
ATOM     22  C   UNL     1     -21.916  40.956 -21.445  0.00  0.00    +0.000 C 
ATOM     23  H   UNL     1     -22.480  41.060 -20.512  0.00  0.00    +0.000 HD
ATOM     24  H   UNL     1     -21.909  39.879 -21.656  0.00  0.00    +0.000 HD
ATOM     25  H   UNL     1     -20.884  41.274 -21.264  0.00  0.00    +0.000 HD
ENDBRANCH  21  22
BRANCH  21  26
ATOM     26  C   UNL     1     -21.546  42.533 -23.226  0.00  0.00    +0.000 C 
ATOM     27  H   UNL     1     -21.923  43.562 -23.309  0.00  0.00    +0.000 HD
ATOM     28  H   UNL     1     -20.642  42.621 -22.614  0.00  0.00    +0.000 HD
BRANCH  26  29
ATOM     29  C   UNL     1     -21.185  42.046 -24.573  0.00  0.00    +0.000 C 
ATOM     30  C   UNL     1     -20.906  41.650 -25.674  0.00  0.00    +0.000 C 
ATOM     31  H   UNL     1     -20.681  41.285 -26.646  0.00  0.00    +0.000 HD
ENDBRANCH  26  29
ENDBRANCH  21  26
ENDBRANCH   1  21
TORSDOF 7
ENDMDL
MODEL 6
REMARK VINA RESULT:    -3.520      2.271      3.811
REMARK INTER + INTRA:          -5.365
REMARK INTER:                  -4.298
REMARK INTRA:                  -1.067
REMARK UNBOUND:                -0.610
REMARK  Name = 26757
REMARK  7 active torsions:
REMARK  status: ('A' for Active; 'I' for Inactive)
REMARK    1  A    between atoms: N_1  and  C_2
REMARK    2  A    between atoms: N_1  and  C_6
REMARK    3  A    between atoms: N_1  and  C_7
REMARK    4  A    between atoms: C_2  and  C_3
REMARK    5  A    between atoms: C_2  and  C_4
REMARK    6  A    between atoms: C_3  and  C_5
REMARK    7  A    between atoms: C_6  and  C_13
REMARK                            x       y       z     vdW  Elec       q    Type
REMARK                         _______ _______ _______ _____ _____    ______ ____
ROOT
ATOM      1  C   UNL     1     -32.942  23.790 -26.262  0.00  0.00    +0.000 C 
ATOM      2  H   UNL     1     -32.946  23.666 -27.355  0.00  0.00    +0.000 HD
ENDROOT
BRANCH   1   3
ATOM      3  C   UNL     1     -34.326  23.275 -25.826  0.00  0.00    +0.000 C 
ATOM      4  H   UNL     1     -34.424  23.280 -24.735  0.00  0.00    +0.000 HD
ATOM      5  H   UNL     1     -35.119  23.931 -26.204  0.00  0.00    +0.000 HD
ATOM      6  H   UNL     1     -34.528  22.261 -26.180  0.00  0.00    +0.000 HD
ENDBRANCH   1   3
BRANCH   1   7
ATOM      7  C   UNL     1     -31.830  22.817 -25.751  0.00  0.00    +0.000 C 
ATOM      8  H   UNL     1     -31.640  23.052 -24.696  0.00  0.00    +0.000 HD
ATOM      9  H   UNL     1     -32.266  21.807 -25.750  0.00  0.00    +0.000 HD
BRANCH   7  10
ATOM     10  C   UNL     1     -30.476  22.684 -26.424  0.00  0.00    +0.000 A 
ATOM     11  C   UNL     1     -29.247  22.935 -25.812  0.00  0.00    +0.000 A 
ATOM     12  C   UNL     1     -30.472  22.307 -27.783  0.00  0.00    +0.000 A 
ATOM     13  C   UNL     1     -28.057  22.878 -26.551  0.00  0.00    +0.000 A 
ATOM     14  C   UNL     1     -29.291  22.259 -28.523  0.00  0.00    +0.000 A 
ATOM     15  C   UNL     1     -28.082  22.564 -27.908  0.00  0.00    +0.000 A 
ATOM     16  H   UNL     1     -29.187  23.203 -24.761  0.00  0.00    +0.000 HD
ATOM     17  H   UNL     1     -31.409  22.068 -28.282  0.00  0.00    +0.000 HD
ATOM     18  H   UNL     1     -27.110  23.099 -26.066  0.00  0.00    +0.000 HD
ATOM     19  H   UNL     1     -29.319  21.999 -29.576  0.00  0.00    +0.000 HD
ATOM     20  H   UNL     1     -27.162  22.561 -28.487  0.00  0.00    +0.000 HD
ENDBRANCH   7  10
ENDBRANCH   1   7
BRANCH   1  21
ATOM     21  N   UNL     1     -32.719  25.231 -25.972  0.00  0.00    +0.000 NA
BRANCH  21  22
ATOM     22  C   UNL     1     -33.839  25.865 -25.271  0.00  0.00    +0.000 C 
ATOM     23  H   UNL     1     -33.773  26.956 -25.322  0.00  0.00    +0.000 HD
ATOM     24  H   UNL     1     -34.794  25.613 -25.749  0.00  0.00    +0.000 HD
ATOM     25  H   UNL     1     -33.898  25.569 -24.218  0.00  0.00    +0.000 HD
ENDBRANCH  21  22
BRANCH  21  26
ATOM     26  C   UNL     1     -32.362  26.024 -27.166  0.00  0.00    +0.000 C 
ATOM     27  H   UNL     1     -32.838  25.581 -28.051  0.00  0.00    +0.000 HD
ATOM     28  H   UNL     1     -32.792  27.028 -27.096  0.00  0.00    +0.000 HD
BRANCH  26  29
ATOM     29  C   UNL     1     -30.907  26.125 -27.406  0.00  0.00    +0.000 C 
ATOM     30  C   UNL     1     -29.726  26.207 -27.617  0.00  0.00    +0.000 C 
ATOM     31  H   UNL     1     -28.684  26.260 -27.821  0.00  0.00    +0.000 HD
ENDBRANCH  26  29
ENDBRANCH  21  26
ENDBRANCH   1  21
TORSDOF 7
ENDMDL
MODEL 7
REMARK VINA RESULT:    -3.512      2.472      6.198
REMARK INTER + INTRA:          -5.354
REMARK INTER:                  -4.318
REMARK INTRA:                  -1.036
REMARK UNBOUND:                -0.610
REMARK  Name = 26757
REMARK  7 active torsions:
REMARK  status: ('A' for Active; 'I' for Inactive)
REMARK    1  A    between atoms: N_1  and  C_2
REMARK    2  A    between atoms: N_1  and  C_6
REMARK    3  A    between atoms: N_1  and  C_7
REMARK    4  A    between atoms: C_2  and  C_3
REMARK    5  A    between atoms: C_2  and  C_4
REMARK    6  A    between atoms: C_3  and  C_5
REMARK    7  A    between atoms: C_6  and  C_13
REMARK                            x       y       z     vdW  Elec       q    Type
REMARK                         _______ _______ _______ _____ _____    ______ ____
ROOT
ATOM      1  C   UNL     1     -31.139  22.576 -26.514  0.00  0.00    +0.000 C 
ATOM      2  H   UNL     1     -31.530  21.551 -26.593  0.00  0.00    +0.000 HD
ENDROOT
BRANCH   1   3
ATOM      3  C   UNL     1     -30.013  22.624 -27.563  0.00  0.00    +0.000 C 
ATOM      4  H   UNL     1     -29.970  23.603 -28.052  0.00  0.00    +0.000 HD
ATOM      5  H   UNL     1     -29.035  22.480 -27.088  0.00  0.00    +0.000 HD
ATOM      6  H   UNL     1     -30.129  21.862 -28.338  0.00  0.00    +0.000 HD
ENDBRANCH   1   3
BRANCH   1   7
ATOM      7  C   UNL     1     -32.322  23.493 -26.964  0.00  0.00    +0.000 C 
ATOM      8  H   UNL     1     -31.893  24.434 -27.333  0.00  0.00    +0.000 HD
ATOM      9  H   UNL     1     -32.778  23.017 -27.844  0.00  0.00    +0.000 HD
BRANCH   7  10
ATOM     10  C   UNL     1     -33.474  23.865 -26.047  0.00  0.00    +0.000 A 
ATOM     11  C   UNL     1     -34.609  23.083 -25.827  0.00  0.00    +0.000 A 
ATOM     12  C   UNL     1     -33.393  25.112 -25.394  0.00  0.00    +0.000 A 
ATOM     13  C   UNL     1     -35.663  23.562 -25.036  0.00  0.00    +0.000 A 
ATOM     14  C   UNL     1     -34.444  25.595 -24.615  0.00  0.00    +0.000 A 
ATOM     15  C   UNL     1     -35.590  24.825 -24.451  0.00  0.00    +0.000 A 
ATOM     16  H   UNL     1     -34.713  22.103 -26.282  0.00  0.00    +0.000 HD
ATOM     17  H   UNL     1     -32.506  25.731 -25.513  0.00  0.00    +0.000 HD
ATOM     18  H   UNL     1     -36.551  22.953 -24.894  0.00  0.00    +0.000 HD
ATOM     19  H   UNL     1     -34.371  26.574 -24.150  0.00  0.00    +0.000 HD
ATOM     20  H   UNL     1     -36.425  25.210 -23.872  0.00  0.00    +0.000 HD
ENDBRANCH   7  10
ENDBRANCH   1   7
BRANCH   1  21
ATOM     21  N   UNL     1     -30.667  22.773 -25.117  0.00  0.00    +0.000 NA
BRANCH  21  22
ATOM     22  C   UNL     1     -29.221  22.988 -25.016  0.00  0.00    +0.000 C 
ATOM     23  H   UNL     1     -28.917  23.899 -25.541  0.00  0.00    +0.000 HD
ATOM     24  H   UNL     1     -28.920  23.145 -23.972  0.00  0.00    +0.000 HD
ATOM     25  H   UNL     1     -28.642  22.148 -25.414  0.00  0.00    +0.000 HD
ENDBRANCH  21  22
BRANCH  21  26
ATOM     26  C   UNL     1     -31.079  21.692 -24.198  0.00  0.00    +0.000 C 
ATOM     27  H   UNL     1     -31.430  20.832 -24.784  0.00  0.00    +0.000 HD
ATOM     28  H   UNL     1     -30.213  21.314 -23.646  0.00  0.00    +0.000 HD
BRANCH  26  29
ATOM     29  C   UNL     1     -32.138  22.086 -23.245  0.00  0.00    +0.000 C 
ATOM     30  C   UNL     1     -33.005  22.417 -22.481  0.00  0.00    +0.000 C 
ATOM     31  H   UNL     1     -33.766  22.735 -21.811  0.00  0.00    +0.000 HD
ENDBRANCH  26  29
ENDBRANCH  21  26
ENDBRANCH   1  21
TORSDOF 7
ENDMDL
MODEL 8
REMARK VINA RESULT:    -3.503      1.567      5.205
REMARK INTER + INTRA:          -5.341
REMARK INTER:                  -4.646
REMARK INTRA:                  -0.696
REMARK UNBOUND:                -0.610
REMARK  Name = 26757
REMARK  7 active torsions:
REMARK  status: ('A' for Active; 'I' for Inactive)
REMARK    1  A    between atoms: N_1  and  C_2
REMARK    2  A    between atoms: N_1  and  C_6
REMARK    3  A    between atoms: N_1  and  C_7
REMARK    4  A    between atoms: C_2  and  C_3
REMARK    5  A    between atoms: C_2  and  C_4
REMARK    6  A    between atoms: C_3  and  C_5
REMARK    7  A    between atoms: C_6  and  C_13
REMARK                            x       y       z     vdW  Elec       q    Type
REMARK                         _______ _______ _______ _____ _____    ______ ____
ROOT
ATOM      1  C   UNL     1     -29.439  22.616 -27.405  0.00  0.00    +0.000 C 
ATOM      2  H   UNL     1     -29.492  21.881 -26.588  0.00  0.00    +0.000 HD
ENDROOT
BRANCH   1   3
ATOM      3  C   UNL     1     -29.803  21.799 -28.660  0.00  0.00    +0.000 C 
ATOM      4  H   UNL     1     -29.405  20.781 -28.597  0.00  0.00    +0.000 HD
ATOM      5  H   UNL     1     -30.890  21.694 -28.751  0.00  0.00    +0.000 HD
ATOM      6  H   UNL     1     -29.428  22.254 -29.580  0.00  0.00    +0.000 HD
ENDBRANCH   1   3
BRANCH   1   7
ATOM      7  C   UNL     1     -30.574  23.645 -27.096  0.00  0.00    +0.000 C 
ATOM      8  H   UNL     1     -30.117  24.503 -26.588  0.00  0.00    +0.000 HD
ATOM      9  H   UNL     1     -30.925  24.033 -28.063  0.00  0.00    +0.000 HD
BRANCH   7  10
ATOM     10  C   UNL     1     -31.824  23.285 -26.314  0.00  0.00    +0.000 A 
ATOM     11  C   UNL     1     -33.130  23.583 -26.706  0.00  0.00    +0.000 A 
ATOM     12  C   UNL     1     -31.638  22.623 -25.083  0.00  0.00    +0.000 A 
ATOM     13  C   UNL     1     -34.212  23.293 -25.863  0.00  0.00    +0.000 A 
ATOM     14  C   UNL     1     -32.712  22.343 -24.238  0.00  0.00    +0.000 A 
ATOM     15  C   UNL     1     -34.000  22.695 -24.621  0.00  0.00    +0.000 A 
ATOM     16  H   UNL     1     -33.335  24.067 -27.656  0.00  0.00    +0.000 HD
ATOM     17  H   UNL     1     -30.636  22.342 -24.763  0.00  0.00    +0.000 HD
ATOM     18  H   UNL     1     -35.221  23.552 -26.171  0.00  0.00    +0.000 HD
ATOM     19  H   UNL     1     -32.539  21.863 -23.279  0.00  0.00    +0.000 HD
ATOM     20  H   UNL     1     -34.837  22.509 -23.954  0.00  0.00    +0.000 HD
ENDBRANCH   7  10
ENDBRANCH   1   7
BRANCH   1  21
ATOM     21  N   UNL     1     -28.058  23.167 -27.428  0.00  0.00    +0.000 NA
BRANCH  21  22
ATOM     22  C   UNL     1     -27.461  23.189 -28.766  0.00  0.00    +0.000 C 
ATOM     23  H   UNL     1     -27.318  24.215 -29.120  0.00  0.00    +0.000 HD
ATOM     24  H   UNL     1     -26.456  22.748 -28.754  0.00  0.00    +0.000 HD
ATOM     25  H   UNL     1     -28.062  22.647 -29.504  0.00  0.00    +0.000 HD
ENDBRANCH  21  22
BRANCH  21  26
ATOM     26  C   UNL     1     -27.142  22.500 -26.481  0.00  0.00    +0.000 C 
ATOM     27  H   UNL     1     -26.957  21.471 -26.819  0.00  0.00    +0.000 HD
ATOM     28  H   UNL     1     -26.157  22.978 -26.506  0.00  0.00    +0.000 HD
BRANCH  26  29
ATOM     29  C   UNL     1     -27.638  22.465 -25.089  0.00  0.00    +0.000 C 
ATOM     30  C   UNL     1     -28.055  22.429 -23.962  0.00  0.00    +0.000 C 
ATOM     31  H   UNL     1     -28.447  22.403 -22.975  0.00  0.00    +0.000 HD
ENDBRANCH  26  29
ENDBRANCH  21  26
ENDBRANCH   1  21
TORSDOF 7
ENDMDL
MODEL 9
REMARK VINA RESULT:    -3.463      1.441      2.305
REMARK INTER + INTRA:          -5.288
REMARK INTER:                  -4.193
REMARK INTRA:                  -1.095
REMARK UNBOUND:                -0.610
REMARK  Name = 26757
REMARK  7 active torsions:
REMARK  status: ('A' for Active; 'I' for Inactive)
REMARK    1  A    between atoms: N_1  and  C_2
REMARK    2  A    between atoms: N_1  and  C_6
REMARK    3  A    between atoms: N_1  and  C_7
REMARK    4  A    between atoms: C_2  and  C_3
REMARK    5  A    between atoms: C_2  and  C_4
REMARK    6  A    between atoms: C_3  and  C_5
REMARK    7  A    between atoms: C_6  and  C_13
REMARK                            x       y       z     vdW  Elec       q    Type
REMARK                         _______ _______ _______ _____ _____    ______ ____
ROOT
ATOM      1  C   UNL     1     -31.597  23.386 -24.551  0.00  0.00    +0.000 C 
ATOM      2  H   UNL     1     -31.192  24.406 -24.479  0.00  0.00    +0.000 HD
ENDROOT
BRANCH   1   3
ATOM      3  C   UNL     1     -32.977  23.488 -23.875  0.00  0.00    +0.000 C 
ATOM      4  H   UNL     1     -33.781  23.502 -24.620  0.00  0.00    +0.000 HD
ATOM      5  H   UNL     1     -33.165  22.610 -23.246  0.00  0.00    +0.000 HD
ATOM      6  H   UNL     1     -33.075  24.380 -23.253  0.00  0.00    +0.000 HD
ENDBRANCH   1   3
BRANCH   1   7
ATOM      7  C   UNL     1     -31.774  23.130 -26.083  0.00  0.00    +0.000 C 
ATOM      8  H   UNL     1     -32.253  22.150 -26.204  0.00  0.00    +0.000 HD
ATOM      9  H   UNL     1     -32.513  23.860 -26.445  0.00  0.00    +0.000 HD
BRANCH   7  10
ATOM     10  C   UNL     1     -30.620  23.182 -27.067  0.00  0.00    +0.000 A 
ATOM     11  C   UNL     1     -30.176  22.108 -27.841  0.00  0.00    +0.000 A 
ATOM     12  C   UNL     1     -29.932  24.407 -27.180  0.00  0.00    +0.000 A 
ATOM     13  C   UNL     1     -29.037  22.234 -28.649  0.00  0.00    +0.000 A 
ATOM     14  C   UNL     1     -28.793  24.532 -27.975  0.00  0.00    +0.000 A 
ATOM     15  C   UNL     1     -28.334  23.436 -28.697  0.00  0.00    +0.000 A 
ATOM     16  H   UNL     1     -30.684  21.149 -27.815  0.00  0.00    +0.000 HD
ATOM     17  H   UNL     1     -30.274  25.276 -26.620  0.00  0.00    +0.000 HD
ATOM     18  H   UNL     1     -28.689  21.382 -29.227  0.00  0.00    +0.000 HD
ATOM     19  H   UNL     1     -28.261  25.477 -28.019  0.00  0.00    +0.000 HD
ATOM     20  H   UNL     1     -27.429  23.518 -29.293  0.00  0.00    +0.000 HD
ENDBRANCH   7  10
ENDBRANCH   1   7
BRANCH   1  21
ATOM     21  N   UNL     1     -30.652  22.475 -23.851  0.00  0.00    +0.000 NA
BRANCH  21  22
ATOM     22  C   UNL     1     -31.213  21.873 -22.639  0.00  0.00    +0.000 C 
ATOM     23  H   UNL     1     -32.189  21.417 -22.837  0.00  0.00    +0.000 HD
ATOM     24  H   UNL     1     -30.581  21.050 -22.281  0.00  0.00    +0.000 HD
ATOM     25  H   UNL     1     -31.326  22.595 -21.823  0.00  0.00    +0.000 HD
ENDBRANCH  21  22
BRANCH  21  26
ATOM     26  C   UNL     1     -29.350  23.100 -23.544  0.00  0.00    +0.000 C 
ATOM     27  H   UNL     1     -29.448  24.193 -23.608  0.00  0.00    +0.000 HD
ATOM     28  H   UNL     1     -29.075  22.911 -22.501  0.00  0.00    +0.000 HD
BRANCH  26  29
ATOM     29  C   UNL     1     -28.251  22.665 -24.431  0.00  0.00    +0.000 C 
ATOM     30  C   UNL     1     -27.346  22.318 -25.144  0.00  0.00    +0.000 C 
ATOM     31  H   UNL     1     -26.537  22.036 -25.772  0.00  0.00    +0.000 HD
ENDBRANCH  26  29
ENDBRANCH  21  26
ENDBRANCH   1  21
TORSDOF 7
ENDMDL
MODEL 10
REMARK VINA RESULT:    -3.451      2.007      5.766
REMARK INTER + INTRA:          -5.272
REMARK INTER:                  -4.662
REMARK INTRA:                  -0.610
REMARK UNBOUND:                -0.610
REMARK  Name = 26757
REMARK  7 active torsions:
REMARK  status: ('A' for Active; 'I' for Inactive)
REMARK    1  A    between atoms: N_1  and  C_2
REMARK    2  A    between atoms: N_1  and  C_6
REMARK    3  A    between atoms: N_1  and  C_7
REMARK    4  A    between atoms: C_2  and  C_3
REMARK    5  A    between atoms: C_2  and  C_4
REMARK    6  A    between atoms: C_3  and  C_5
REMARK    7  A    between atoms: C_6  and  C_13
REMARK                            x       y       z     vdW  Elec       q    Type
REMARK                         _______ _______ _______ _____ _____    ______ ____
ROOT
ATOM      1  C   UNL     1     -29.652  22.861 -24.313  0.00  0.00    +0.000 C 
ATOM      2  H   UNL     1     -30.096  23.851 -24.496  0.00  0.00    +0.000 HD
ENDROOT
BRANCH   1   3
ATOM      3  C   UNL     1     -29.035  22.988 -22.907  0.00  0.00    +0.000 C 
ATOM      4  H   UNL     1     -28.657  24.001 -22.732  0.00  0.00    +0.000 HD
ATOM      5  H   UNL     1     -29.793  22.811 -22.135  0.00  0.00    +0.000 HD
ATOM      6  H   UNL     1     -28.214  22.286 -22.745  0.00  0.00    +0.000 HD
ENDBRANCH   1   3
BRANCH   1   7
ATOM      7  C   UNL     1     -30.866  21.877 -24.271  0.00  0.00    +0.000 C 
ATOM      8  H   UNL     1     -30.633  21.031 -24.931  0.00  0.00    +0.000 HD
ATOM      9  H   UNL     1     -30.900  21.455 -23.257  0.00  0.00    +0.000 HD
BRANCH   7  10
ATOM     10  C   UNL     1     -32.287  22.305 -24.591  0.00  0.00    +0.000 A 
ATOM     11  C   UNL     1     -33.421  21.932 -23.867  0.00  0.00    +0.000 A 
ATOM     12  C   UNL     1     -32.468  23.120 -25.728  0.00  0.00    +0.000 A 
ATOM     13  C   UNL     1     -34.700  22.302 -24.304  0.00  0.00    +0.000 A 
ATOM     14  C   UNL     1     -33.740  23.481 -26.170  0.00  0.00    +0.000 A 
ATOM     15  C   UNL     1     -34.860  23.055 -25.466  0.00  0.00    +0.000 A 
ATOM     16  H   UNL     1     -33.339  21.328 -22.969  0.00  0.00    +0.000 HD
ATOM     17  H   UNL     1     -31.603  23.461 -26.295  0.00  0.00    +0.000 HD
ATOM     18  H   UNL     1     -35.575  21.984 -23.744  0.00  0.00    +0.000 HD
ATOM     19  H   UNL     1     -33.854  24.081 -27.068  0.00  0.00    +0.000 HD
ATOM     20  H   UNL     1     -35.855  23.305 -25.824  0.00  0.00    +0.000 HD
ENDBRANCH   7  10
ENDBRANCH   1   7
BRANCH   1  21
ATOM     21  N   UNL     1     -28.654  22.608 -25.386  0.00  0.00    +0.000 NA
BRANCH  21  22
ATOM     22  C   UNL     1     -27.269  22.810 -24.953  0.00  0.00    +0.000 C 
ATOM     23  H   UNL     1     -26.641  21.954 -25.220  0.00  0.00    +0.000 HD
ATOM     24  H   UNL     1     -26.818  23.667 -25.469  0.00  0.00    +0.000 HD
ATOM     25  H   UNL     1     -27.185  22.980 -23.874  0.00  0.00    +0.000 HD
ENDBRANCH  21  22
BRANCH  21  26
ATOM     26  C   UNL     1     -28.911  23.375 -26.622  0.00  0.00    +0.000 C 
ATOM     27  H   UNL     1     -29.673  24.140 -26.422  0.00  0.00    +0.000 HD
ATOM     28  H   UNL     1     -28.019  23.944 -26.906  0.00  0.00    +0.000 HD
BRANCH  26  29
ATOM     29  C   UNL     1     -29.351  22.546 -27.763  0.00  0.00    +0.000 C 
ATOM     30  C   UNL     1     -29.722  21.866 -28.683  0.00  0.00    +0.000 C 
ATOM     31  H   UNL     1     -30.056  21.246 -29.479  0.00  0.00    +0.000 HD
ENDBRANCH  26  29
ENDBRANCH  21  26
ENDBRANCH   1  21
TORSDOF 7
ENDMDL
