MODEL 1
REMARK VINA RESULT:    -3.793      0.000      0.000
REMARK INTER + INTRA:          -4.153
REMARK INTER:                  -4.015
REMARK INTRA:                  -0.139
REMARK UNBOUND:                -0.139
REMARK  Name = 10281
REMARK  4 active torsions:
REMARK  status: ('A' for Active; 'I' for Inactive)
REMARK    1  A    between atoms: C_3  and  C_4
REMARK    2  A    between atoms: C_3  and  C_5
REMARK    3  A    between atoms: C_3  and  C_6
REMARK    4  A    between atoms: C_9  and  C_12
REMARK                            x       y       z     vdW  Elec       q    Type
REMARK                         _______ _______ _______ _____ _____    ______ ____
ROOT
ATOM      1  O   UNL     1     -24.987  42.806 -23.921  0.00  0.00    +0.000 OA
ATOM      2  O   UNL     1     -20.078  41.279 -25.303  0.00  0.00    +0.000 OA
ATOM      3  C   UNL     1     -23.618  41.665 -25.491  0.00  0.00    +0.000 C 
ATOM      4  C   UNL     1     -23.861  42.447 -24.252  0.00  0.00    +0.000 C 
ATOM      5  C   UNL     1     -22.372  41.297 -25.811  0.00  0.00    +0.000 C 
ATOM      6  C   UNL     1     -21.447  42.418 -23.732  0.00  0.00    +0.000 C 
ATOM      7  C   UNL     1     -21.204  41.637 -24.972  0.00  0.00    +0.000 C 
ATOM      8  C   UNL     1     -22.693  42.787 -23.412  0.00  0.00    +0.000 C 
ATOM      9  C   UNL     1     -20.258  42.757 -22.889  0.00  0.00    +0.000 C 
ENDROOT
BRANCH   3  10
ATOM     10  C   UNL     1     -24.807  41.325 -26.334  0.00  0.00    +0.000 C 
ATOM     11  C   UNL     1     -24.811  42.163 -27.610  0.00  0.00    +0.000 C 
ATOM     12  C   UNL     1     -24.831  39.835 -26.663  0.00  0.00    +0.000 C 
ENDBRANCH   3  10
TORSDOF 1
ENDMDL
MODEL 2
REMARK VINA RESULT:    -3.751     19.308     21.584
REMARK INTER + INTRA:          -4.109
REMARK INTER:                  -3.971
REMARK INTRA:                  -0.138
REMARK UNBOUND:                -0.139
REMARK  Name = 10281
REMARK  4 active torsions:
REMARK  status: ('A' for Active; 'I' for Inactive)
REMARK    1  A    between atoms: C_3  and  C_4
REMARK    2  A    between atoms: C_3  and  C_5
REMARK    3  A    between atoms: C_3  and  C_6
REMARK    4  A    between atoms: C_9  and  C_12
REMARK                            x       y       z     vdW  Elec       q    Type
REMARK                         _______ _______ _______ _____ _____    ______ ____
ROOT
ATOM      1  O   UNL     1     -30.166  21.825 -24.146  0.00  0.00    +0.000 OA
ATOM      2  O   UNL     1     -35.006  23.407 -25.700  0.00  0.00    +0.000 OA
ATOM      3  C   UNL     1     -31.465  22.992 -25.756  0.00  0.00    +0.000 C 
ATOM      4  C   UNL     1     -31.275  22.196 -24.516  0.00  0.00    +0.000 C 
ATOM      5  C   UNL     1     -32.694  23.373 -26.120  0.00  0.00    +0.000 C 
ATOM      6  C   UNL     1     -33.707  22.241 -24.089  0.00  0.00    +0.000 C 
ATOM      7  C   UNL     1     -33.897  23.036 -25.329  0.00  0.00    +0.000 C 
ATOM      8  C   UNL     1     -32.478  21.859 -23.725  0.00  0.00    +0.000 C 
ATOM      9  C   UNL     1     -34.930  21.904 -23.295  0.00  0.00    +0.000 C 
ENDROOT
BRANCH   3  10
ATOM     10  C   UNL     1     -30.241  23.330 -26.549  0.00  0.00    +0.000 C 
ATOM     11  C   UNL     1     -30.109  22.392 -27.746  0.00  0.00    +0.000 C 
ATOM     12  C   UNL     1     -30.273  24.787 -27.002  0.00  0.00    +0.000 C 
ENDBRANCH   3  10
TORSDOF 1
ENDMDL
MODEL 3
REMARK VINA RESULT:    -3.554     17.781     19.659
REMARK INTER + INTRA:          -3.901
REMARK INTER:                  -3.764
REMARK INTRA:                  -0.136
REMARK UNBOUND:                -0.139
REMARK  Name = 10281
REMARK  4 active torsions:
REMARK  status: ('A' for Active; 'I' for Inactive)
REMARK    1  A    between atoms: C_3  and  C_4
REMARK    2  A    between atoms: C_3  and  C_5
REMARK    3  A    between atoms: C_3  and  C_6
REMARK    4  A    between atoms: C_9  and  C_12
REMARK                            x       y       z     vdW  Elec       q    Type
REMARK                         _______ _______ _______ _____ _____    ______ ____
ROOT
ATOM      1  O   UNL     1     -24.190  21.480 -28.361  0.00  0.00    +0.000 OA
ATOM      2  O   UNL     1     -28.283  24.613 -29.696  0.00  0.00    +0.000 OA
ATOM      3  C   UNL     1     -24.905  23.539 -29.306  0.00  0.00    +0.000 C 
ATOM      4  C   UNL     1     -25.124  22.212 -28.673  0.00  0.00    +0.000 C 
ATOM      5  C   UNL     1     -25.954  24.302 -29.630  0.00  0.00    +0.000 C 
ATOM      6  C   UNL     1     -27.568  22.555 -28.749  0.00  0.00    +0.000 C 
ATOM      7  C   UNL     1     -27.349  23.881 -29.382  0.00  0.00    +0.000 C 
ATOM      8  C   UNL     1     -26.518  21.791 -28.425  0.00  0.00    +0.000 C 
ATOM      9  C   UNL     1     -28.984  22.137 -28.502  0.00  0.00    +0.000 C 
ENDROOT
BRANCH   3  10
ATOM     10  C   UNL     1     -23.489  23.957 -29.552  0.00  0.00    +0.000 C 
ATOM     11  C   UNL     1     -23.377  24.694 -30.884  0.00  0.00    +0.000 C 
ATOM     12  C   UNL     1     -22.972  24.823 -28.407  0.00  0.00    +0.000 C 
ENDBRANCH   3  10
TORSDOF 1
ENDMDL
MODEL 4
REMARK VINA RESULT:    -3.540     19.430     20.523
REMARK INTER + INTRA:          -3.886
REMARK INTER:                  -3.790
REMARK INTRA:                  -0.096
REMARK UNBOUND:                -0.139
REMARK  Name = 10281
REMARK  4 active torsions:
REMARK  status: ('A' for Active; 'I' for Inactive)
REMARK    1  A    between atoms: C_3  and  C_4
REMARK    2  A    between atoms: C_3  and  C_5
REMARK    3  A    between atoms: C_3  and  C_6
REMARK    4  A    between atoms: C_9  and  C_12
REMARK                            x       y       z     vdW  Elec       q    Type
REMARK                         _______ _______ _______ _____ _____    ______ ____
ROOT
ATOM      1  O   UNL     1     -27.018  22.563 -25.333  0.00  0.00    +0.000 OA
ATOM      2  O   UNL     1     -32.011  22.972 -27.134  0.00  0.00    +0.000 OA
ATOM      3  C   UNL     1     -28.448  22.838 -27.209  0.00  0.00    +0.000 C 
ATOM      4  C   UNL     1     -28.163  22.659 -25.762  0.00  0.00    +0.000 C 
ATOM      5  C   UNL     1     -29.714  22.937 -27.630  0.00  0.00    +0.000 C 
ATOM      6  C   UNL     1     -30.580  22.699 -25.258  0.00  0.00    +0.000 C 
ATOM      7  C   UNL     1     -30.865  22.877 -26.705  0.00  0.00    +0.000 C 
ATOM      8  C   UNL     1     -29.314  22.599 -24.836  0.00  0.00    +0.000 C 
ATOM      9  C   UNL     1     -31.752  22.640 -24.329  0.00  0.00    +0.000 C 
ENDROOT
BRANCH   3  10
ATOM     10  C   UNL     1     -27.276  22.898 -28.138  0.00  0.00    +0.000 C 
ATOM     11  C   UNL     1     -26.853  21.491 -28.550  0.00  0.00    +0.000 C 
ATOM     12  C   UNL     1     -27.597  23.750 -29.363  0.00  0.00    +0.000 C 
ENDBRANCH   3  10
TORSDOF 1
ENDMDL
MODEL 5
REMARK VINA RESULT:    -3.509     19.694     20.747
REMARK INTER + INTRA:          -3.853
REMARK INTER:                  -3.718
REMARK INTRA:                  -0.135
REMARK UNBOUND:                -0.139
REMARK  Name = 10281
REMARK  4 active torsions:
REMARK  status: ('A' for Active; 'I' for Inactive)
REMARK    1  A    between atoms: C_3  and  C_4
REMARK    2  A    between atoms: C_3  and  C_5
REMARK    3  A    between atoms: C_3  and  C_6
REMARK    4  A    between atoms: C_9  and  C_12
REMARK                            x       y       z     vdW  Elec       q    Type
REMARK                         _______ _______ _______ _____ _____    ______ ____
ROOT
ATOM      1  O   UNL     1     -28.973  23.576 -24.294  0.00  0.00    +0.000 OA
ATOM      2  O   UNL     1     -29.964  21.759 -29.198  0.00  0.00    +0.000 OA
ATOM      3  C   UNL     1     -30.588  22.770 -25.836  0.00  0.00    +0.000 C 
ATOM      4  C   UNL     1     -29.215  23.156 -25.420  0.00  0.00    +0.000 C 
ATOM      5  C   UNL     1     -30.805  22.317 -27.076  0.00  0.00    +0.000 C 
ATOM      6  C   UNL     1     -28.348  22.563 -27.655  0.00  0.00    +0.000 C 
ATOM      7  C   UNL     1     -29.721  22.178 -28.071  0.00  0.00    +0.000 C 
ATOM      8  C   UNL     1     -28.131  23.017 -26.415  0.00  0.00    +0.000 C 
ATOM      9  C   UNL     1     -27.256  22.419 -28.669  0.00  0.00    +0.000 C 
ENDROOT
BRANCH   3  10
ATOM     10  C   UNL     1     -31.679  22.913 -24.821  0.00  0.00    +0.000 C 
ATOM     11  C   UNL     1     -32.967  23.388 -25.489  0.00  0.00    +0.000 C 
ATOM     12  C   UNL     1     -31.906  21.599 -24.079  0.00  0.00    +0.000 C 
ENDBRANCH   3  10
TORSDOF 1
ENDMDL
MODEL 6
REMARK VINA RESULT:    -3.494     19.766     21.318
REMARK INTER + INTRA:          -3.837
REMARK INTER:                  -3.710
REMARK INTRA:                  -0.128
REMARK UNBOUND:                -0.139
REMARK  Name = 10281
REMARK  4 active torsions:
REMARK  status: ('A' for Active; 'I' for Inactive)
REMARK    1  A    between atoms: C_3  and  C_4
REMARK    2  A    between atoms: C_3  and  C_5
REMARK    3  A    between atoms: C_3  and  C_6
REMARK    4  A    between atoms: C_9  and  C_12
REMARK                            x       y       z     vdW  Elec       q    Type
REMARK                         _______ _______ _______ _____ _____    ______ ____
ROOT
ATOM      1  O   UNL     1     -32.934  23.825 -27.291  0.00  0.00    +0.000 OA
ATOM      2  O   UNL     1     -31.173  21.548 -22.812  0.00  0.00    +0.000 OA
ATOM      3  C   UNL     1     -31.094  22.888 -26.116  0.00  0.00    +0.000 C 
ATOM      4  C   UNL     1     -32.515  23.299 -26.265  0.00  0.00    +0.000 C 
ATOM      5  C   UNL     1     -30.683  22.319 -24.977  0.00  0.00    +0.000 C 
ATOM      6  C   UNL     1     -33.013  22.482 -23.988  0.00  0.00    +0.000 C 
ATOM      7  C   UNL     1     -31.593  22.073 -23.839  0.00  0.00    +0.000 C 
ATOM      8  C   UNL     1     -33.425  23.053 -25.127  0.00  0.00    +0.000 C 
ATOM      9  C   UNL     1     -33.927  22.229 -22.831  0.00  0.00    +0.000 C 
ENDROOT
BRANCH   3  10
ATOM     10  C   UNL     1     -30.181  23.141 -27.274  0.00  0.00    +0.000 C 
ATOM     11  C   UNL     1     -28.781  23.492 -26.779  0.00  0.00    +0.000 C 
ATOM     12  C   UNL     1     -30.140  21.933 -28.206  0.00  0.00    +0.000 C 
ENDBRANCH   3  10
TORSDOF 1
ENDMDL
MODEL 7
REMARK VINA RESULT:    -3.312     20.900     21.789
REMARK INTER + INTRA:          -3.645
REMARK INTER:                  -3.506
REMARK INTRA:                  -0.138
REMARK UNBOUND:                -0.139
REMARK  Name = 10281
REMARK  4 active torsions:
REMARK  status: ('A' for Active; 'I' for Inactive)
REMARK    1  A    between atoms: C_3  and  C_4
REMARK    2  A    between atoms: C_3  and  C_5
REMARK    3  A    between atoms: C_3  and  C_6
REMARK    4  A    between atoms: C_9  and  C_12
REMARK                            x       y       z     vdW  Elec       q    Type
REMARK                         _______ _______ _______ _____ _____    ______ ____
ROOT
ATOM      1  O   UNL     1     -31.268  21.790 -22.515  0.00  0.00    +0.000 OA
ATOM      2  O   UNL     1     -33.105  23.451 -27.227  0.00  0.00    +0.000 OA
ATOM      3  C   UNL     1     -33.119  22.595 -23.765  0.00  0.00    +0.000 C 
ATOM      4  C   UNL     1     -31.704  22.175 -23.595  0.00  0.00    +0.000 C 
ATOM      5  C   UNL     1     -33.550  23.008 -24.962  0.00  0.00    +0.000 C 
ATOM      6  C   UNL     1     -31.254  22.644 -25.977  0.00  0.00    +0.000 C 
ATOM      7  C   UNL     1     -32.668  23.065 -26.147  0.00  0.00    +0.000 C 
ATOM      8  C   UNL     1     -30.822  22.232 -24.779  0.00  0.00    +0.000 C 
ATOM      9  C   UNL     1     -30.368  22.705 -27.182  0.00  0.00    +0.000 C 
ENDROOT
BRANCH   3  10
ATOM     10  C   UNL     1     -34.005  22.533 -22.560  0.00  0.00    +0.000 C 
ATOM     11  C   UNL     1     -34.170  23.922 -21.951  0.00  0.00    +0.000 C 
ATOM     12  C   UNL     1     -35.361  21.931 -22.914  0.00  0.00    +0.000 C 
ENDBRANCH   3  10
TORSDOF 1
ENDMDL
MODEL 8
REMARK VINA RESULT:    -3.239      1.707      4.221
REMARK INTER + INTRA:          -3.567
REMARK INTER:                  -3.471
REMARK INTRA:                  -0.096
REMARK UNBOUND:                -0.139
REMARK  Name = 10281
REMARK  4 active torsions:
REMARK  status: ('A' for Active; 'I' for Inactive)
REMARK    1  A    between atoms: C_3  and  C_4
REMARK    2  A    between atoms: C_3  and  C_5
REMARK    3  A    between atoms: C_3  and  C_6
REMARK    4  A    between atoms: C_9  and  C_12
REMARK                            x       y       z     vdW  Elec       q    Type
REMARK                         _______ _______ _______ _____ _____    ______ ____
ROOT
ATOM      1  O   UNL     1     -24.507  43.201 -24.683  0.00  0.00    +0.000 OA
ATOM      2  O   UNL     1     -23.354  38.581 -27.064  0.00  0.00    +0.000 OA
ATOM      3  C   UNL     1     -22.870  41.540 -25.133  0.00  0.00    +0.000 C 
ATOM      4  C   UNL     1     -24.228  42.137 -25.227  0.00  0.00    +0.000 C 
ATOM      5  C   UNL     1     -22.613  40.377 -25.742  0.00  0.00    +0.000 C 
ATOM      6  C   UNL     1     -24.990  40.243 -26.615  0.00  0.00    +0.000 C 
ATOM      7  C   UNL     1     -23.634  39.645 -26.521  0.00  0.00    +0.000 C 
ATOM      8  C   UNL     1     -25.249  41.406 -26.005  0.00  0.00    +0.000 C 
ATOM      9  C   UNL     1     -26.018  39.495 -27.406  0.00  0.00    +0.000 C 
ENDROOT
BRANCH   3  10
ATOM     10  C   UNL     1     -21.843  42.289 -24.343  0.00  0.00    +0.000 C 
ATOM     11  C   UNL     1     -21.941  41.924 -22.865  0.00  0.00    +0.000 C 
ATOM     12  C   UNL     1     -20.441  42.013 -24.879  0.00  0.00    +0.000 C 
ENDBRANCH   3  10
TORSDOF 1
ENDMDL
MODEL 9
REMARK VINA RESULT:    -3.182     10.912     13.691
REMARK INTER + INTRA:          -3.506
REMARK INTER:                  -3.368
REMARK INTRA:                  -0.138
REMARK UNBOUND:                -0.139
REMARK  Name = 10281
REMARK  4 active torsions:
REMARK  status: ('A' for Active; 'I' for Inactive)
REMARK    1  A    between atoms: C_3  and  C_4
REMARK    2  A    between atoms: C_3  and  C_5
REMARK    3  A    between atoms: C_3  and  C_6
REMARK    4  A    between atoms: C_9  and  C_12
REMARK                            x       y       z     vdW  Elec       q    Type
REMARK                         _______ _______ _______ _____ _____    ______ ____
ROOT
ATOM      1  O   UNL     1     -34.114  38.607 -28.699  0.00  0.00    +0.000 OA
ATOM      2  O   UNL     1     -36.837  42.498 -31.106  0.00  0.00    +0.000 OA
ATOM      3  C   UNL     1     -34.057  40.757 -29.707  0.00  0.00    +0.000 C 
ATOM      4  C   UNL     1     -34.729  39.512 -29.254  0.00  0.00    +0.000 C 
ATOM      5  C   UNL     1     -34.769  41.716 -30.310  0.00  0.00    +0.000 C 
ATOM      6  C   UNL     1     -36.894  40.349 -30.096  0.00  0.00    +0.000 C 
ATOM      7  C   UNL     1     -36.222  41.593 -30.549  0.00  0.00    +0.000 C 
ATOM      8  C   UNL     1     -36.182  39.389 -29.494  0.00  0.00    +0.000 C 
ATOM      9  C   UNL     1     -38.366  40.233 -30.342  0.00  0.00    +0.000 C 
ENDROOT
BRANCH   3  10
ATOM     10  C   UNL     1     -32.585  40.872 -29.459  0.00  0.00    +0.000 C 
ATOM     11  C   UNL     1     -31.822  40.861 -30.781  0.00  0.00    +0.000 C 
ATOM     12  C   UNL     1     -32.267  42.132 -28.659  0.00  0.00    +0.000 C 
ENDBRANCH   3  10
TORSDOF 1
ENDMDL
MODEL 10
REMARK VINA RESULT:    -3.161     17.516     18.225
REMARK INTER + INTRA:          -3.485
REMARK INTER:                  -3.346
REMARK INTRA:                  -0.139
REMARK UNBOUND:                -0.139
REMARK  Name = 10281
REMARK  4 active torsions:
REMARK  status: ('A' for Active; 'I' for Inactive)
REMARK    1  A    between atoms: C_3  and  C_4
REMARK    2  A    between atoms: C_3  and  C_5
REMARK    3  A    between atoms: C_3  and  C_6
REMARK    4  A    between atoms: C_9  and  C_12
REMARK                            x       y       z     vdW  Elec       q    Type
REMARK                         _______ _______ _______ _____ _____    ______ ____
ROOT
ATOM      1  O   UNL     1     -20.411  30.060 -14.910  0.00  0.00    +0.000 OA
ATOM      2  O   UNL     1     -21.404  24.853 -14.414  0.00  0.00    +0.000 OA
ATOM      3  C   UNL     1     -21.565  28.350 -13.734  0.00  0.00    +0.000 C 
ATOM      4  C   UNL     1     -20.648  28.863 -14.784  0.00  0.00    +0.000 C 
ATOM      5  C   UNL     1     -21.795  27.036 -13.636  0.00  0.00    +0.000 C 
ATOM      6  C   UNL     1     -20.248  26.563 -15.589  0.00  0.00    +0.000 C 
ATOM      7  C   UNL     1     -21.165  26.051 -14.540  0.00  0.00    +0.000 C 
ATOM      8  C   UNL     1     -20.018  27.878 -15.689  0.00  0.00    +0.000 C 
ATOM      9  C   UNL     1     -19.614  25.559 -16.500  0.00  0.00    +0.000 C 
ENDROOT
BRANCH   3  10
ATOM     10  C   UNL     1     -22.197  29.356 -12.823  0.00  0.00    +0.000 C 
ATOM     11  C   UNL     1     -23.707  29.140 -12.760  0.00  0.00    +0.000 C 
ATOM     12  C   UNL     1     -21.580  29.287 -11.428  0.00  0.00    +0.000 C 
ENDBRANCH   3  10
TORSDOF 1
ENDMDL
